@<TRIPOS>MOLECULE
*****
 24 26 0 0 0
SMALL
GASTEIGER

@<TRIPOS>ATOM
      1 C          61.4034   87.2521   10.5284 C.3     1  UNL1        0.1612
      2 C          61.5214   86.4588    9.2607 C.ar    1  UNL1        0.0171
      3 C          62.8238   85.8065    8.9027 C.ar    1  UNL1       -0.0002
      4 C          62.9419   85.0133    7.6351 C.ar    1  UNL1        0.0112
      5 C          61.7574   84.8723    6.7255 C.ar    1  UNL1        0.0585
      6 CL         61.8755   84.0790    5.4579 Cl      1  UNL1       -0.0822
      7 C          60.4550   85.5245    7.0835 C.ar    1  UNL1        0.0225
      8 C          60.3370   86.3178    8.3512 C.ar    1  UNL1        0.0568
      9 CL         59.0345   86.9701    8.7092 Cl      1  UNL1       -0.0825
     10 O          61.4915   86.5608   11.8567 O.3     1  UNL1       -0.3451
     11 C          62.7410   85.8231   12.2368 C.3     1  UNL1        0.1690
     12 CL         62.4812   79.9860   13.6009 Cl      1  UNL1       -0.0822
     13 C          62.5462   81.4453   13.2598 C.ar    1  UNL1        0.0577
     14 C          62.7756   81.8744   11.8410 C.ar    1  UNL1        0.0111
     15 C          62.8406   83.3337   11.5000 C.ar    1  UNL1       -0.0010
     16 C          62.6761   84.3638   12.5778 C.ar    1  UNL1        0.0073
     17 C          62.4466   83.9347   13.9966 C.ar    1  UNL1       -0.0010
     18 C          62.3817   82.4754   14.3377 C.ar    1  UNL1        0.0111
     19 C          61.1972   88.7366   10.4677 C.3     1  UNL1        0.1416
     20 N          62.2503   89.6624   11.0004 N.ar    1  UNL1       -0.3050
     21 C          62.8063   89.6568   12.3935 C.ar    1  UNL1        0.0981
     22 C          63.8320   90.7474   12.4877 C.ar    1  UNL1        0.1193
     23 N          63.9098   91.4270   11.1528 N.ar    1  UNL1       -0.2223
     24 C          62.9323   90.7564   10.2336 C.ar    1  UNL1        0.1787
@<TRIPOS>BOND
     1    12    13    1
     2    13    14   ar
     3    14    15   ar
     4    15    16   ar
     5    16    11    1
     6    11    10    1
     7    10     1    1
     8     1    19    1
     9    19    20    1
    10    20    21   ar
    11    21    22   ar
    12    22    23   ar
    13    23    24   ar
    14     1     2    1
    15     2     3   ar
    16     3     4   ar
    17     4     5   ar
    18     5     6    1
    19     5     7   ar
    20     7     8   ar
    21     8     9    1
    22    16    17   ar
    23    17    18   ar
    24    18    13   ar
    25    24    20   ar
    26     8     2   ar
@<TRIPOS>MOLECULE
*****
 24 26 0 0 0
SMALL
GASTEIGER

@<TRIPOS>ATOM
      1 C          63.4663   85.2681   13.2557 C.3     1  UNL1        0.1612
      2 C          63.1361   83.8049   13.2598 C.ar    1  UNL1        0.0171
      3 C          62.2754   83.2334   14.3472 C.ar    1  UNL1       -0.0002
      4 C          61.9451   81.7702   14.3514 C.ar    1  UNL1        0.0112
      5 C          62.4755   80.8785   13.2680 C.ar    1  UNL1        0.0585
      6 CL         62.1453   79.4154   13.2722 Cl      1  UNL1       -0.0822
      7 C          63.3362   81.4500   12.1806 C.ar    1  UNL1        0.0225
      8 C          63.6665   82.9133   12.1765 C.ar    1  UNL1        0.0568
      9 CL         64.5272   83.4848   11.0890 Cl      1  UNL1       -0.0825
     10 O          62.8760   86.1673   12.2102 O.3     1  UNL1       -0.3451
     11 C          61.6487   85.7411   11.4606 C.3     1  UNL1        0.1690
     12 CL         59.4280   89.2272    7.1113 Cl      1  UNL1       -0.0822
     13 C          59.9832   88.3556    8.1986 C.ar    1  UNL1        0.0577
     14 C          60.2664   88.9349    9.5530 C.ar    1  UNL1        0.0111
     15 C          60.8216   88.0634   10.6403 C.ar    1  UNL1       -0.0010
     16 C          61.0935   86.6126   10.3733 C.ar    1  UNL1        0.0073
     17 C          60.8103   86.0334    9.0189 C.ar    1  UNL1       -0.0010
     18 C          60.2551   86.9049    7.9316 C.ar    1  UNL1        0.0111
     19 C          64.3868   85.8322   14.2971 C.3     1  UNL1        0.1416
     20 N          63.8262   86.6019   15.4560 N.ar    1  UNL1       -0.3050
     21 C          63.2772   86.0140   16.7221 C.ar    1  UNL1        0.0981
     22 C          62.8278   87.1435   17.6009 C.ar    1  UNL1        0.1193
     23 N          63.0990   88.4295   16.8780 N.ar    1  UNL1       -0.2223
     24 C          63.7160   88.0948   15.5523 C.ar    1  UNL1        0.1787
@<TRIPOS>BOND
     1    12    13    1
     2    13    14   ar
     3    14    15   ar
     4    15    16   ar
     5    16    11    1
     6    11    10    1
     7    10     1    1
     8     1    19    1
     9    19    20    1
    10    20    21   ar
    11    21    22   ar
    12    22    23   ar
    13    23    24   ar
    14     1     2    1
    15     2     3   ar
    16     3     4   ar
    17     4     5   ar
    18     5     6    1
    19     5     7   ar
    20     7     8   ar
    21     8     9    1
    22    16    17   ar
    23    17    18   ar
    24    18    13   ar
    25    24    20   ar
    26     8     2   ar
@<TRIPOS>MOLECULE
*****
 24 26 0 0 0
SMALL
GASTEIGER

@<TRIPOS>ATOM
      1 C          63.4726   85.4003   13.2465 C.3     1  UNL1        0.1612
      2 C          63.1462   83.9364   13.2756 C.ar    1  UNL1        0.0171
      3 C          62.2878   83.3811   14.3731 C.ar    1  UNL1       -0.0002
      4 C          61.9613   81.9174   14.4022 C.ar    1  UNL1        0.0112
      5 C          62.4934   81.0089   13.3337 C.ar    1  UNL1        0.0585
      6 CL         62.1670   79.5452   13.3627 Cl      1  UNL1       -0.0822
      7 C          63.3519   81.5642   12.2361 C.ar    1  UNL1        0.0225
      8 C          63.6783   83.0280   12.2071 C.ar    1  UNL1        0.0568
      9 CL         64.5368   83.5834   11.1095 Cl      1  UNL1       -0.0825
     10 O          62.8759   86.2809   12.1890 O.3     1  UNL1       -0.3451
     11 C          61.6411   85.8439   11.4581 C.3     1  UNL1        0.1690
     12 CL         59.3940   89.2513    7.0604 Cl      1  UNL1       -0.0822
     13 C          59.9557   88.3994    8.1598 C.ar    1  UNL1        0.0577
     14 C          60.1746   86.9327    7.9348 C.ar    1  UNL1        0.0111
     15 C          60.7364   86.0809    9.0342 C.ar    1  UNL1       -0.0010
     16 C          61.0793   86.6958   10.3587 C.ar    1  UNL1        0.0073
     17 C          60.8604   88.1625   10.5837 C.ar    1  UNL1       -0.0010
     18 C          60.2986   89.0143    9.4843 C.ar    1  UNL1        0.0111
     19 C          64.3958   85.9834   14.2750 C.3     1  UNL1        0.1416
     20 N          64.0072   87.2320   15.0098 N.ar    1  UNL1       -0.3050
     21 C          64.2162   88.6380   14.5310 C.ar    1  UNL1        0.0981
     22 C          63.6795   89.5688   15.5777 C.ar    1  UNL1        0.1193
     23 N          63.1387   88.7380   16.7034 N.ar    1  UNL1       -0.2223
     24 C          63.3412   87.2937   16.3524 C.ar    1  UNL1        0.1787
@<TRIPOS>BOND
     1    12    13    1
     2    13    14   ar
     3    14    15   ar
     4    15    16   ar
     5    16    11    1
     6    11    10    1
     7    10     1    1
     8     1    19    1
     9    19    20    1
    10    20    21   ar
    11    21    22   ar
    12    22    23   ar
    13    23    24   ar
    14     1     2    1
    15     2     3   ar
    16     3     4   ar
    17     4     5   ar
    18     5     6    1
    19     5     7   ar
    20     7     8   ar
    21     8     9    1
    22    16    17   ar
    23    17    18   ar
    24    18    13   ar
    25    24    20   ar
    26     8     2   ar
@<TRIPOS>MOLECULE
*****
 24 26 0 0 0
SMALL
GASTEIGER

@<TRIPOS>ATOM
      1 C          62.0171   86.9397   10.4205 C.3     1  UNL1        0.1612
      2 C          61.9105   86.2110    9.1136 C.ar    1  UNL1        0.0171
      3 C          63.0752   85.4173    8.6004 C.ar    1  UNL1       -0.0002
      4 C          62.9687   84.6887    7.2936 C.ar    1  UNL1        0.0112
      5 C          61.6975   84.7537    6.5000 C.ar    1  UNL1        0.0585
      6 CL         61.5910   84.0251    5.1933 Cl      1  UNL1       -0.0822
      7 C          60.5327   85.5474    7.0133 C.ar    1  UNL1        0.0225
      8 C          60.6393   86.2761    8.3201 C.ar    1  UNL1        0.0568
      9 CL         59.4746   87.0698    8.8334 Cl      1  UNL1       -0.0825
     10 O          62.4369   88.3795   10.4443 O.3     1  UNL1       -0.3451
     11 C          62.1114   89.2361   11.6319 C.3     1  UNL1        0.1690
     12 CL         66.5277   91.8007   14.7814 Cl      1  UNL1       -0.0822
     13 C          65.4236   91.1596   13.9940 C.ar    1  UNL1        0.0577
     14 C          64.8374   89.8559   14.4487 C.ar    1  UNL1        0.0111
     15 C          63.7334   89.2147   13.6614 C.ar    1  UNL1       -0.0010
     16 C          63.2155   89.8772   12.4192 C.ar    1  UNL1        0.0073
     17 C          63.8017   91.1809   11.9645 C.ar    1  UNL1       -0.0010
     18 C          64.9058   91.8220   12.7519 C.ar    1  UNL1        0.0111
     19 C          61.7039   86.2284   11.7035 C.3     1  UNL1        0.1416
     20 N          62.6565   85.2042   12.2451 N.ar    1  UNL1       -0.3050
     21 C          63.6470   85.4190   13.3510 C.ar    1  UNL1        0.0981
     22 C          64.3886   84.1329   13.5653 C.ar    1  UNL1        0.1193
     23 N          63.8565   83.1232   12.5920 N.ar    1  UNL1       -0.2223
     24 C          62.7860   83.7853   11.7761 C.ar    1  UNL1        0.1787
@<TRIPOS>BOND
     1    12    13    1
     2    13    14   ar
     3    14    15   ar
     4    15    16   ar
     5    16    11    1
     6    11    10    1
     7    10     1    1
     8     1    19    1
     9    19    20    1
    10    20    21   ar
    11    21    22   ar
    12    22    23   ar
    13    23    24   ar
    14     1     2    1
    15     2     3   ar
    16     3     4   ar
    17     4     5   ar
    18     5     6    1
    19     5     7   ar
    20     7     8   ar
    21     8     9    1
    22    16    17   ar
    23    17    18   ar
    24    18    13   ar
    25    24    20   ar
    26     8     2   ar
@<TRIPOS>MOLECULE
*****
 24 26 0 0 0
SMALL
GASTEIGER

@<TRIPOS>ATOM
      1 C          63.0478   84.5691   13.1049 C.3     1  UNL1        0.1612
      2 C          63.0673   83.2851   12.3296 C.ar    1  UNL1        0.0171
      3 C          63.6595   83.2498   10.9519 C.ar    1  UNL1       -0.0002
      4 C          63.6790   81.9659   10.1765 C.ar    1  UNL1        0.0112
      5 C          63.1063   80.7172   10.7790 C.ar    1  UNL1        0.0585
      6 CL         63.1258   79.4333   10.0037 Cl      1  UNL1       -0.0822
      7 C          62.5142   80.7525   12.1567 C.ar    1  UNL1        0.0225
      8 C          62.4947   82.0365   12.9320 C.ar    1  UNL1        0.0568
      9 CL         61.9025   82.0718   14.3097 Cl      1  UNL1       -0.0825
     10 O          62.1695   85.7007   12.6599 O.3     1  UNL1       -0.3451
     11 C          62.6760   86.6931   11.6556 C.3     1  UNL1        0.1690
     12 CL         59.0981   88.5615    7.2163 Cl      1  UNL1       -0.0822
     13 C          59.9926   88.0944    8.3261 C.ar    1  UNL1        0.0577
     14 C          60.2044   86.6266    8.5514 C.ar    1  UNL1        0.0111
     15 C          61.0989   86.1595    9.6612 C.ar    1  UNL1       -0.0010
     16 C          61.7815   87.1602   10.5458 C.ar    1  UNL1        0.0073
     17 C          61.5698   88.6280   10.3206 C.ar    1  UNL1       -0.0010
     18 C          60.6753   89.0951    9.2107 C.ar    1  UNL1        0.0111
     19 C          63.9067   84.7215   14.3252 C.3     1  UNL1        0.1416
     20 N          63.3816   85.4521   15.5254 N.ar    1  UNL1       -0.3050
     21 C          63.8036   86.8176   15.9808 C.ar    1  UNL1        0.0981
     22 C          63.0252   87.1549   17.2178 C.ar    1  UNL1        0.1193
     23 N          62.1220   85.9978   17.5270 N.ar    1  UNL1       -0.2223
     24 C          62.3423   84.9455   16.4810 C.ar    1  UNL1        0.1787
@<TRIPOS>BOND
     1    12    13    1
     2    13    14   ar
     3    14    15   ar
     4    15    16   ar
     5    16    11    1
     6    11    10    1
     7    10     1    1
     8     1    19    1
     9    19    20    1
    10    20    21   ar
    11    21    22   ar
    12    22    23   ar
    13    23    24   ar
    14     1     2    1
    15     2     3   ar
    16     3     4   ar
    17     4     5   ar
    18     5     6    1
    19     5     7   ar
    20     7     8   ar
    21     8     9    1
    22    16    17   ar
    23    17    18   ar
    24    18    13   ar
    25    24    20   ar
    26     8     2   ar
@<TRIPOS>MOLECULE
*****
 24 26 0 0 0
SMALL
GASTEIGER

@<TRIPOS>ATOM
      1 C          61.9050   87.3218   10.9868 C.3     1  UNL1        0.1612
      2 C          62.5206   85.9630   11.1443 C.ar    1  UNL1        0.0171
      3 C          62.7542   85.3998   12.5148 C.ar    1  UNL1       -0.0002
      4 C          63.3698   84.0410   12.6723 C.ar    1  UNL1        0.0112
      5 C          63.7516   83.2454   11.4593 C.ar    1  UNL1        0.0585
      6 CL         64.3671   81.8866   11.6169 Cl      1  UNL1       -0.0822
      7 C          63.5180   83.8086   10.0888 C.ar    1  UNL1        0.0225
      8 C          62.9024   85.1674    9.9314 C.ar    1  UNL1        0.0568
      9 CL         62.6687   85.7306    8.5609 Cl      1  UNL1       -0.0825
     10 O          62.7663   88.5479   11.0559 O.3     1  UNL1       -0.3451
     11 C          62.5355   89.5670   12.1320 C.3     1  UNL1        0.1690
     12 CL         67.1347   92.7818   14.2560 Cl      1  UNL1       -0.0822
     13 C          65.9849   91.9781   13.7250 C.ar    1  UNL1        0.0577
     14 C          65.3594   92.3414   12.4110 C.ar    1  UNL1        0.0111
     15 C          64.2096   91.5377   11.8800 C.ar    1  UNL1       -0.0010
     16 C          63.6853   90.3707   12.6630 C.ar    1  UNL1        0.0073
     17 C          64.3108   90.0074   13.9770 C.ar    1  UNL1       -0.0010
     18 C          65.4606   90.8111   14.5080 C.ar    1  UNL1        0.0111
     19 C          60.4282   87.4545   10.7602 C.3     1  UNL1        0.1416
     20 N          59.9055   87.7788    9.3921 N.ar    1  UNL1       -0.3050
     21 C          60.0871   89.0775    8.6639 C.ar    1  UNL1        0.0981
     22 C          59.4032   88.9628    7.3338 C.ar    1  UNL1        0.1193
     23 N          58.7989   87.5931    7.2400 N.ar    1  UNL1       -0.2223
     24 C          59.1094   86.8614    8.5121 C.ar    1  UNL1        0.1787
@<TRIPOS>BOND
     1    12    13    1
     2    13    14   ar
     3    14    15   ar
     4    15    16   ar
     5    16    11    1
     6    11    10    1
     7    10     1    1
     8     1    19    1
     9    19    20    1
    10    20    21   ar
    11    21    22   ar
    12    22    23   ar
    13    23    24   ar
    14     1     2    1
    15     2     3   ar
    16     3     4   ar
    17     4     5   ar
    18     5     6    1
    19     5     7   ar
    20     7     8   ar
    21     8     9    1
    22    16    17   ar
    23    17    18   ar
    24    18    13   ar
    25    24    20   ar
    26     8     2   ar
@<TRIPOS>MOLECULE
*****
 24 26 0 0 0
SMALL
GASTEIGER

@<TRIPOS>ATOM
      1 C          62.1745   88.1022   10.7226 C.3     1  UNL1        0.1612
      2 C          62.9312   88.8776   11.7600 C.ar    1  UNL1        0.0171
      3 C          63.4337   88.1878   12.9935 C.ar    1  UNL1       -0.0002
      4 C          64.1903   88.9631   14.0309 C.ar    1  UNL1        0.0112
      5 C          64.4445   90.4284   13.8348 C.ar    1  UNL1        0.0585
      6 CL         65.2011   91.2038   14.8722 Cl      1  UNL1       -0.0822
      7 C          63.9420   91.1183   12.6013 C.ar    1  UNL1        0.0225
      8 C          63.1853   90.3429   11.5639 C.ar    1  UNL1        0.0568
      9 CL         62.6828   91.0327   10.3304 Cl      1  UNL1       -0.0825
     10 O          62.9133   87.2299    9.7513 O.3     1  UNL1       -0.3451
     11 C          62.4568   85.8216    9.5106 C.3     1  UNL1        0.1690
     12 CL         64.1397   81.4419   13.2504 Cl      1  UNL1       -0.0822
     13 C          63.7189   82.5368   12.3154 C.ar    1  UNL1        0.0577
     14 C          64.1683   82.5151   10.8845 C.ar    1  UNL1        0.0111
     15 C          63.7476   83.6100    9.9496 C.ar    1  UNL1       -0.0010
     16 C          62.8775   84.7266   10.4455 C.ar    1  UNL1        0.0073
     17 C          62.4282   84.7483   11.8765 C.ar    1  UNL1       -0.0010
     18 C          62.8489   83.6534   12.8114 C.ar    1  UNL1        0.0111
     19 C          60.6791   88.1990   10.6564 C.3     1  UNL1        0.1416
     20 N          59.9818   88.1431    9.3295 N.ar    1  UNL1       -0.3050
     21 C          59.9378   89.2421    8.3096 C.ar    1  UNL1        0.0981
     22 C          59.1349   88.7566    7.1393 C.ar    1  UNL1        0.1193
     23 N          58.6827   87.3574    7.4359 N.ar    1  UNL1       -0.2223
     24 C          59.2062   86.9783    8.7895 C.ar    1  UNL1        0.1787
@<TRIPOS>BOND
     1    12    13    1
     2    13    14   ar
     3    14    15   ar
     4    15    16   ar
     5    16    11    1
     6    11    10    1
     7    10     1    1
     8     1    19    1
     9    19    20    1
    10    20    21   ar
    11    21    22   ar
    12    22    23   ar
    13    23    24   ar
    14     1     2    1
    15     2     3   ar
    16     3     4   ar
    17     4     5   ar
    18     5     6    1
    19     5     7   ar
    20     7     8   ar
    21     8     9    1
    22    16    17   ar
    23    17    18   ar
    24    18    13   ar
    25    24    20   ar
    26     8     2   ar
@<TRIPOS>MOLECULE
*****
 24 26 0 0 0
SMALL
GASTEIGER

@<TRIPOS>ATOM
      1 C          63.0687   84.8133   12.7830 C.3     1  UNL1        0.1612
      2 C          63.0148   83.3787   12.3482 C.ar    1  UNL1        0.0171
      3 C          63.4881   82.9919   10.9784 C.ar    1  UNL1       -0.0002
      4 C          63.4343   81.5573   10.5436 C.ar    1  UNL1        0.0112
      5 C          62.9072   80.5095   11.4786 C.ar    1  UNL1        0.0585
      6 CL         62.8534   79.0749   11.0438 Cl      1  UNL1       -0.0822
      7 C          62.4339   80.8963   12.8484 C.ar    1  UNL1        0.0225
      8 C          62.4877   82.3309   13.2832 C.ar    1  UNL1        0.0568
      9 CL         62.0144   82.7177   14.6530 Cl      1  UNL1       -0.0825
     10 O          62.0087   85.7740   12.3318 O.3     1  UNL1       -0.3451
     11 C          62.2470   86.6457   11.1346 C.3     1  UNL1        0.1690
     12 CL         61.4000   84.4565    5.6129 Cl      1  UNL1       -0.0822
     13 C          61.6117   85.0038    6.9933 C.ar    1  UNL1        0.0577
     14 C          62.9379   84.8323    7.6729 C.ar    1  UNL1        0.0111
     15 C          63.1496   85.3796    9.0533 C.ar    1  UNL1       -0.0010
     16 C          62.0352   86.0984    9.7542 C.ar    1  UNL1        0.0073
     17 C          60.7090   86.2699    9.0747 C.ar    1  UNL1       -0.0010
     18 C          60.4973   85.7226    7.6942 C.ar    1  UNL1        0.0111
     19 C          64.1824   85.2873   13.6689 C.3     1  UNL1        0.1416
     20 N          63.9270   86.3595   14.6862 N.ar    1  UNL1       -0.3050
     21 C          64.2065   87.8231   14.5137 C.ar    1  UNL1        0.0981
     22 C          63.7995   88.5247   15.7756 C.ar    1  UNL1        0.1193
     23 N          63.2686   87.4946   16.7280 N.ar    1  UNL1       -0.2223
     24 C          63.3474   86.1565   16.0547 C.ar    1  UNL1        0.1787
@<TRIPOS>BOND
     1    12    13    1
     2    13    14   ar
     3    14    15   ar
     4    15    16   ar
     5    16    11    1
     6    11    10    1
     7    10     1    1
     8     1    19    1
     9    19    20    1
    10    20    21   ar
    11    21    22   ar
    12    22    23   ar
    13    23    24   ar
    14     1     2    1
    15     2     3   ar
    16     3     4   ar
    17     4     5   ar
    18     5     6    1
    19     5     7   ar
    20     7     8   ar
    21     8     9    1
    22    16    17   ar
    23    17    18   ar
    24    18    13   ar
    25    24    20   ar
    26     8     2   ar
@<TRIPOS>MOLECULE
*****
 24 26 0 0 0
SMALL
GASTEIGER

@<TRIPOS>ATOM
      1 C          62.3115   87.0579   11.1453 C.3     1  UNL1        0.1612
      2 C          62.6982   85.7627   11.7957 C.ar    1  UNL1        0.0171
      3 C          62.2931   84.4600   11.1721 C.ar    1  UNL1       -0.0002
      4 C          62.6797   83.1649   11.8225 C.ar    1  UNL1        0.0112
      5 C          63.4715   83.1724   13.0966 C.ar    1  UNL1        0.0585
      6 CL         63.8581   81.8772   13.7469 Cl      1  UNL1       -0.0822
      7 C          63.8766   84.4751   13.7201 C.ar    1  UNL1        0.0225
      8 C          63.4899   85.7703   13.0697 C.ar    1  UNL1        0.0568
      9 CL         63.8950   87.0730   13.6933 Cl      1  UNL1       -0.0825
     10 O          61.8584   88.2139   11.9869 O.3     1  UNL1       -0.3451
     11 C          61.8579   89.6015   11.4174 C.3     1  UNL1        0.1690
     12 CL         66.5291   93.2418   12.3813 Cl      1  UNL1       -0.0822
     13 C          65.3613   92.3317   12.1403 C.ar    1  UNL1        0.0577
     14 C          64.7160   92.2819   10.7872 C.ar    1  UNL1        0.0111
     15 C          63.5482   91.3718   10.5462 C.ar    1  UNL1       -0.0010
     16 C          63.0257   90.5116   11.6584 C.ar    1  UNL1        0.0073
     17 C          63.6710   90.5615   13.0115 C.ar    1  UNL1       -0.0010
     18 C          64.8388   91.4715   13.2525 C.ar    1  UNL1        0.0111
     19 C          62.3780   87.1971    9.6532 C.3     1  UNL1        0.1416
     20 N          61.1253   87.0976    8.8342 N.ar    1  UNL1       -0.3050
     21 C          60.1142   88.1874    8.6335 C.ar    1  UNL1        0.0981
     22 C          59.0277   87.6543    7.7473 C.ar    1  UNL1        0.1193
     23 N          59.3673   86.2350    7.4002 N.ar    1  UNL1       -0.2223
     24 C          60.6636   85.8910    8.0720 C.ar    1  UNL1        0.1787
@<TRIPOS>BOND
     1    12    13    1
     2    13    14   ar
     3    14    15   ar
     4    15    16   ar
     5    16    11    1
     6    11    10    1
     7    10     1    1
     8     1    19    1
     9    19    20    1
    10    20    21   ar
    11    21    22   ar
    12    22    23   ar
    13    23    24   ar
    14     1     2    1
    15     2     3   ar
    16     3     4   ar
    17     4     5   ar
    18     5     6    1
    19     5     7   ar
    20     7     8   ar
    21     8     9    1
    22    16    17   ar
    23    17    18   ar
    24    18    13   ar
    25    24    20   ar
    26     8     2   ar
