@<TRIPOS>MOLECULE
*****
 25 27 0 0 0
SMALL
GASTEIGER

@<TRIPOS>ATOM
      1 C          59.7427   88.6825    7.9371 C.3     1  UNL1        0.0302
      2 C          60.5251   89.5943    8.8350 C.3     1  UNL1        0.0736
      3 N          61.3317   89.0242    9.9639 N.3     1  UNL1       -0.2699
      4 C          62.1142   89.9361   10.8618 C.3     1  UNL1        0.0770
      5 C          62.9208   89.3661   11.9907 C.3     1  UNL1        0.0435
      6 C          62.9449   87.8841   12.2217 C.ar    1  UNL1       -0.0203
      7 C          63.7515   87.3140   13.3506 C.ar    1  UNL1        0.0356
      8 C          63.7757   85.8321   13.5815 C.ar    1  UNL1        0.1721
      9 C          62.9933   84.9203   12.6836 C.ar    1  UNL1        0.1721
     10 C          62.1867   85.4904   11.5547 C.ar    1  UNL1        0.0368
     11 C          62.1625   86.9723   11.3237 C.ar    1  UNL1       -0.0084
     12 C          61.3559   87.5423   10.1948 C.3     1  UNL1        0.0812
     13 C          60.5734   86.6305    9.2969 C.3     1  UNL1        0.0360
     14 C          59.7668   87.2006    8.1680 C.3     1  UNL1        0.0538
     15 N          58.9844   86.2887    7.2700 N.3     1  UNL1       -0.3221
     16 H          59.1145   85.3225    7.5699 H       1  UNL1        0.1188
     17 H          59.3120   86.3938    6.3098 H       1  UNL1        0.1188
     18 O          64.5823   85.2621   14.7104 O.3     1  UNL1       -0.4684
     19 C          63.9488   85.0524   16.0538 C.3     1  UNL1        0.2526
     20 O          63.0174   83.4383   12.9145 O.3     1  UNL1       -0.4684
     21 C          64.1362   82.6103   12.3555 C.3     1  UNL1        0.2526
     22 C          58.9361   89.2525    6.8082 C.3     1  UNL1        0.0027
     23 C          59.5843   90.1642    5.8088 C.3     1  UNL1        0.0001
     24 C          57.3082   91.1911    5.0912 C.3     1  UNL1        0.0000
     25 C          58.8008   91.2903    5.2022 C.3     1  UNL1        0.0000
@<TRIPOS>BOND
     1    24    25    1
     2    25    23    1
     3    23    22    1
     4     1    22    1
     5     1     2    1
     6     2     3    1
     7     3     4    1
     8     4     5    1
     9     5     6    1
    10     6     7   ar
    11     7     8   ar
    12     8    18    1
    13    18    19    1
    14     8     9   ar
    15     9    20    1
    16    20    21    1
    17     9    10   ar
    18    10    11   ar
    19    11    12    1
    20    12    13    1
    21    13    14    1
    22    14    15    1
    23    14     1    1
    24    12     3    1
    25    11     6   ar
    26    15    16    1
    27    15    17    1
@<TRIPOS>MOLECULE
*****
 25 27 0 0 0
SMALL
GASTEIGER

@<TRIPOS>ATOM
      1 C          63.8488   82.9180   14.1236 C.3     1  UNL1        0.0302
      2 C          63.2639   83.3577   15.4330 C.3     1  UNL1        0.0736
      3 N          63.2337   84.8144   15.7895 N.3     1  UNL1       -0.2699
      4 C          62.6487   85.2540   17.0990 C.3     1  UNL1        0.0770
      5 C          62.6186   86.7107   17.4555 C.3     1  UNL1        0.0435
      6 C          63.1734   87.7278   16.5027 C.ar    1  UNL1       -0.0203
      7 C          63.1432   89.1845   16.8592 C.ar    1  UNL1        0.0356
      8 C          63.6980   90.2015   15.9064 C.ar    1  UNL1        0.1721
      9 C          64.2829   89.7618   14.5971 C.ar    1  UNL1        0.1721
     10 C          64.3131   88.3051   14.2405 C.ar    1  UNL1        0.0368
     11 C          63.7583   87.2881   15.1933 C.ar    1  UNL1       -0.0084
     12 C          63.7885   85.8314   14.8367 C.3     1  UNL1        0.0812
     13 C          64.3734   85.3917   13.5274 C.3     1  UNL1        0.0360
     14 C          64.4036   83.9350   13.1708 C.3     1  UNL1        0.0538
     15 N          64.9885   83.4953   11.8614 N.3     1  UNL1       -0.3221
     16 H          65.3153   84.3113   11.3439 H       1  UNL1        0.1188
     17 H          64.2758   83.0101   11.3164 H       1  UNL1        0.1188
     18 O          63.6678   91.6582   16.2630 O.3     1  UNL1       -0.4684
     19 C          64.9126   92.3362   16.7535 C.3     1  UNL1        0.2526
     20 O          64.8377   90.7788   13.6442 O.3     1  UNL1       -0.4684
     21 C          64.0076   91.2561   12.4896 C.3     1  UNL1        0.2526
     22 C          63.8789   81.4613   13.7671 C.3     1  UNL1        0.0027
     23 C          62.7841   80.8716   12.9283 C.3     1  UNL1        0.0001
     24 C          60.4808   80.7512   14.1243 C.3     1  UNL1        0.0000
     25 C          61.6961   80.0656   13.5738 C.3     1  UNL1        0.0000
@<TRIPOS>BOND
     1    24    25    1
     2    25    23    1
     3    23    22    1
     4     1    22    1
     5     1     2    1
     6     2     3    1
     7     3     4    1
     8     4     5    1
     9     5     6    1
    10     6     7   ar
    11     7     8   ar
    12     8    18    1
    13    18    19    1
    14     8     9   ar
    15     9    20    1
    16    20    21    1
    17     9    10   ar
    18    10    11   ar
    19    11    12    1
    20    12    13    1
    21    13    14    1
    22    14    15    1
    23    14     1    1
    24    12     3    1
    25    11     6   ar
    26    15    16    1
    27    15    17    1
@<TRIPOS>MOLECULE
*****
 25 27 0 0 0
SMALL
GASTEIGER

@<TRIPOS>ATOM
      1 C          61.5185   88.2072   10.8330 C.3     1  UNL1        0.0302
      2 C          62.2088   87.8459   12.1147 C.3     1  UNL1        0.0736
      3 N          63.2015   88.7910   12.7242 N.3     1  UNL1       -0.2699
      4 C          63.8918   88.4296   14.0060 C.3     1  UNL1        0.0770
      5 C          64.8845   89.3747   14.6155 C.3     1  UNL1        0.0435
      6 C          65.1867   90.6811   13.9432 C.ar    1  UNL1       -0.0203
      7 C          66.1793   91.6262   14.5527 C.ar    1  UNL1        0.0356
      8 C          66.4816   92.9326   13.8805 C.ar    1  UNL1        0.1721
      9 C          65.7912   93.2940   12.5988 C.ar    1  UNL1        0.1721
     10 C          64.7986   92.3489   11.9893 C.ar    1  UNL1        0.0368
     11 C          64.4963   91.0425   12.6615 C.ar    1  UNL1       -0.0084
     12 C          63.5037   90.0974   12.0520 C.3     1  UNL1        0.0812
     13 C          62.8133   90.4587   10.7703 C.3     1  UNL1        0.0360
     14 C          61.8207   89.5136   10.1608 C.3     1  UNL1        0.0538
     15 N          61.1303   89.8750    8.8790 N.3     1  UNL1       -0.3221
     16 H          61.4531   90.7903    8.5653 H       1  UNL1        0.1188
     17 H          60.1223   89.9041    9.0323 H       1  UNL1        0.1188
     18 O          67.4742   93.8777   14.4900 O.3     1  UNL1       -0.4684
     19 C          68.2102   93.4901   15.7382 C.3     1  UNL1        0.2526
     20 O          66.0935   94.6004   11.9265 O.3     1  UNL1       -0.4684
     21 C          66.4869   94.6258   10.4793 C.3     1  UNL1        0.2526
     22 C          60.5258   87.2621   10.2235 C.3     1  UNL1        0.0027
     23 C          60.9813   86.2325    9.2324 C.3     1  UNL1        0.0001
     24 C          62.9001   85.0722    7.9201 C.3     1  UNL1        0.0000
     25 C          62.4464   86.0254    8.9857 C.3     1  UNL1        0.0000
@<TRIPOS>BOND
     1    24    25    1
     2    25    23    1
     3    23    22    1
     4     1    22    1
     5     1     2    1
     6     2     3    1
     7     3     4    1
     8     4     5    1
     9     5     6    1
    10     6     7   ar
    11     7     8   ar
    12     8    18    1
    13    18    19    1
    14     8     9   ar
    15     9    20    1
    16    20    21    1
    17     9    10   ar
    18    10    11   ar
    19    11    12    1
    20    12    13    1
    21    13    14    1
    22    14    15    1
    23    14     1    1
    24    12     3    1
    25    11     6   ar
    26    15    16    1
    27    15    17    1
@<TRIPOS>MOLECULE
*****
 25 27 0 0 0
SMALL
GASTEIGER

@<TRIPOS>ATOM
      1 C          62.6745   89.4871   11.4726 C.3     1  UNL1        0.0302
      2 C          63.4084   89.1979   12.7483 C.3     1  UNL1        0.0736
      3 N          63.6020   87.7798   13.1972 N.3     1  UNL1       -0.2699
      4 C          64.3360   87.4905   14.4731 C.3     1  UNL1        0.0770
      5 C          64.5296   86.0724   14.9220 C.3     1  UNL1        0.0435
      6 C          63.9892   84.9436   14.0951 C.ar    1  UNL1       -0.0203
      7 C          64.1828   83.5255   14.5440 C.ar    1  UNL1        0.0356
      8 C          63.6425   82.3967   13.7171 C.ar    1  UNL1        0.1721
      9 C          62.9085   82.6859   12.4414 C.ar    1  UNL1        0.1721
     10 C          62.7149   84.1040   11.9925 C.ar    1  UNL1        0.0368
     11 C          63.2553   85.2329   12.8193 C.ar    1  UNL1       -0.0084
     12 C          63.0617   86.6509   12.3704 C.3     1  UNL1        0.0812
     13 C          62.3277   86.9402   11.0946 C.3     1  UNL1        0.0360
     14 C          62.1342   88.3583   10.6457 C.3     1  UNL1        0.0538
     15 N          61.4002   88.6476    9.3699 N.3     1  UNL1       -0.3221
     16 H          61.1055   87.7704    8.9408 H       1  UNL1        0.1188
     17 H          62.0157   89.1492    8.7297 H       1  UNL1        0.1188
     18 O          63.8360   80.9786   14.1660 O.3     1  UNL1       -0.4684
     19 C          62.7006   80.0024   14.0780 C.3     1  UNL1        0.2526
     20 O          62.3681   81.5571   11.6144 O.3     1  UNL1       -0.4684
     21 C          63.1800   81.0011   10.4824 C.3     1  UNL1        0.2526
     22 C          62.4809   90.9052   11.0236 C.3     1  UNL1        0.0027
     23 C          63.5972   91.6330   10.3351 C.3     1  UNL1        0.0001
     24 C          65.7968   93.0070   10.4910 C.3     1  UNL1        0.0000
     25 C          64.7934   92.0855   11.1189 C.3     1  UNL1        0.0000
@<TRIPOS>BOND
     1    24    25    1
     2    25    23    1
     3    23    22    1
     4     1    22    1
     5     1     2    1
     6     2     3    1
     7     3     4    1
     8     4     5    1
     9     5     6    1
    10     6     7   ar
    11     7     8   ar
    12     8    18    1
    13    18    19    1
    14     8     9   ar
    15     9    20    1
    16    20    21    1
    17     9    10   ar
    18    10    11   ar
    19    11    12    1
    20    12    13    1
    21    13    14    1
    22    14    15    1
    23    14     1    1
    24    12     3    1
    25    11     6   ar
    26    15    16    1
    27    15    17    1
@<TRIPOS>MOLECULE
*****
 25 27 0 0 0
SMALL
GASTEIGER

@<TRIPOS>ATOM
      1 C          60.6792   87.2050    9.6285 C.3     1  UNL1        0.0302
      2 C          61.3163   86.4582   10.7627 C.3     1  UNL1        0.0736
      3 N          62.2398   87.1713   11.7054 N.3     1  UNL1       -0.2699
      4 C          62.8769   86.4245   12.8396 C.3     1  UNL1        0.0770
      5 C          63.8005   87.1376   13.7822 C.3     1  UNL1        0.0435
      6 C          64.0869   88.5975   13.5907 C.ar    1  UNL1       -0.0203
      7 C          65.0104   89.3106   14.5333 C.ar    1  UNL1        0.0356
      8 C          65.2968   90.7705   14.3418 C.ar    1  UNL1        0.1721
      9 C          64.6597   91.5172   13.2076 C.ar    1  UNL1        0.1721
     10 C          63.7362   90.8041   12.2649 C.ar    1  UNL1        0.0368
     11 C          63.4498   89.3443   12.4565 C.ar    1  UNL1       -0.0084
     12 C          62.5263   88.6312   11.5138 C.3     1  UNL1        0.0812
     13 C          61.8892   89.3779   10.3796 C.3     1  UNL1        0.0360
     14 C          60.9657   88.6648    9.4370 C.3     1  UNL1        0.0538
     15 N          60.3286   89.4117    8.3027 N.3     1  UNL1       -0.3221
     16 H          60.6320   90.3852    8.3237 H       1  UNL1        0.1188
     17 H          59.3137   89.3698    8.3956 H       1  UNL1        0.1188
     18 O          66.2203   91.4836   15.2844 O.3     1  UNL1       -0.4684
     19 C          67.6506   91.7190   14.8986 C.3     1  UNL1        0.2526
     20 O          64.9461   92.9772   13.0160 O.3     1  UNL1       -0.4684
     21 C          65.8986   93.4204   11.9453 C.3     1  UNL1        0.2526
     22 C          59.7557   86.4919    8.6859 C.3     1  UNL1        0.0027
     23 C          60.2763   85.9634    7.3822 C.3     1  UNL1        0.0001
     24 C          61.9960   84.4825    6.1173 C.3     1  UNL1        0.0000
     25 C          61.6085   85.2760    7.3299 C.3     1  UNL1        0.0000
@<TRIPOS>BOND
     1    24    25    1
     2    25    23    1
     3    23    22    1
     4     1    22    1
     5     1     2    1
     6     2     3    1
     7     3     4    1
     8     4     5    1
     9     5     6    1
    10     6     7   ar
    11     7     8   ar
    12     8    18    1
    13    18    19    1
    14     8     9   ar
    15     9    20    1
    16    20    21    1
    17     9    10   ar
    18    10    11   ar
    19    11    12    1
    20    12    13    1
    21    13    14    1
    22    14    15    1
    23    14     1    1
    24    12     3    1
    25    11     6   ar
    26    15    16    1
    27    15    17    1
@<TRIPOS>MOLECULE
*****
 25 27 0 0 0
SMALL
GASTEIGER

@<TRIPOS>ATOM
      1 C          64.0280   86.3467   13.8916 C.3     1  UNL1        0.0302
      2 C          63.7478   87.7962   13.6266 C.3     1  UNL1        0.0736
      3 N          62.9266   88.1960   12.4367 N.3     1  UNL1       -0.2699
      4 C          62.6464   89.6456   12.1717 C.3     1  UNL1        0.0770
      5 C          61.8252   90.0454   10.9818 C.3     1  UNL1        0.0435
      6 C          61.2844   88.9956   10.0569 C.ar    1  UNL1       -0.0203
      7 C          60.4632   89.3954    8.8669 C.ar    1  UNL1        0.0356
      8 C          59.9224   88.3457    7.9420 C.ar    1  UNL1        0.1721
      9 C          60.2026   86.8962    8.2070 C.ar    1  UNL1        0.1721
     10 C          61.0238   86.4964    9.3970 C.ar    1  UNL1        0.0368
     11 C          61.5646   87.5461   10.3219 C.ar    1  UNL1       -0.0084
     12 C          62.3858   87.1463   11.5118 C.3     1  UNL1        0.0812
     13 C          62.6660   85.6968   11.7768 C.3     1  UNL1        0.0360
     14 C          63.4872   85.2970   12.9667 C.3     1  UNL1        0.0538
     15 N          63.7674   83.8473   13.2317 N.3     1  UNL1       -0.3221
     16 H          63.3268   83.2782   12.5089 H       1  UNL1        0.1188
     17 H          63.3911   83.5895   14.1440 H       1  UNL1        0.1188
     18 O          59.1012   88.7455    6.7521 O.3     1  UNL1       -0.4684
     19 C          59.4383   89.9950    5.9939 C.3     1  UNL1        0.2526
     20 O          59.6618   85.8464    7.2821 O.3     1  UNL1       -0.4684
     21 C          60.5862   84.8327    6.6757 C.3     1  UNL1        0.2526
     22 C          64.8492   85.9469   15.0815 C.3     1  UNL1        0.0027
     23 C          64.1774   85.4067   16.3090 C.3     1  UNL1        0.0001
     24 C          62.6819   86.6099   18.0600 C.3     1  UNL1        0.0000
     25 C          62.8390   85.9392   16.7274 C.3     1  UNL1        0.0000
@<TRIPOS>BOND
     1    24    25    1
     2    25    23    1
     3    23    22    1
     4     1    22    1
     5     1     2    1
     6     2     3    1
     7     3     4    1
     8     4     5    1
     9     5     6    1
    10     6     7   ar
    11     7     8   ar
    12     8    18    1
    13    18    19    1
    14     8     9   ar
    15     9    20    1
    16    20    21    1
    17     9    10   ar
    18    10    11   ar
    19    11    12    1
    20    12    13    1
    21    13    14    1
    22    14    15    1
    23    14     1    1
    24    12     3    1
    25    11     6   ar
    26    15    16    1
    27    15    17    1
@<TRIPOS>MOLECULE
*****
 25 27 0 0 0
SMALL
GASTEIGER

@<TRIPOS>ATOM
      1 C          63.3896   82.3584   13.2492 C.3     1  UNL1        0.0302
      2 C          63.9036   83.1356   14.4246 C.3     1  UNL1        0.0736
      3 N          63.9367   84.6344   14.3761 N.3     1  UNL1       -0.2699
      4 C          64.4507   85.4117   15.5517 C.3     1  UNL1        0.0770
      5 C          64.4838   86.9105   15.5032 C.3     1  UNL1        0.0435
      6 C          64.0029   87.6321   14.2792 C.ar    1  UNL1       -0.0203
      7 C          64.0360   89.1310   14.2308 C.ar    1  UNL1        0.0356
      8 C          63.5551   89.8526   13.0069 C.ar    1  UNL1        0.1721
      9 C          63.0412   89.0754   11.8314 C.ar    1  UNL1        0.1721
     10 C          63.0081   87.5765   11.8799 C.ar    1  UNL1        0.0368
     11 C          63.4889   86.8549   13.1038 C.ar    1  UNL1       -0.0084
     12 C          63.4558   85.3561   13.1522 C.3     1  UNL1        0.0812
     13 C          62.9418   84.5788   11.9768 C.3     1  UNL1        0.0360
     14 C          62.9087   83.0800   12.0253 C.3     1  UNL1        0.0538
     15 N          62.3947   82.3028   10.8497 N.3     1  UNL1       -0.3221
     16 H          62.1124   82.9485   10.1124 H       1  UNL1        0.1188
     17 H          61.5919   81.7429   11.1371 H       1  UNL1        0.1188
     18 O          63.5883   91.3515   12.9584 O.3     1  UNL1       -0.4684
     19 C          64.8961   92.0679   12.7964 C.3     1  UNL1        0.2526
     20 O          62.5602   89.7970   10.6075 O.3     1  UNL1       -0.4684
     21 C          61.1567   90.3229   10.5498 C.3     1  UNL1        0.2526
     22 C          63.3565   80.8595   13.2976 C.3     1  UNL1        0.0027
     23 C          62.1045   80.1503   13.7212 C.3     1  UNL1        0.0001
     24 C          59.5513   80.2846   14.1828 C.3     1  UNL1        0.0000
     25 C          60.8997   80.9403   14.1389 C.3     1  UNL1        0.0000
@<TRIPOS>BOND
     1    24    25    1
     2    25    23    1
     3    23    22    1
     4     1    22    1
     5     1     2    1
     6     2     3    1
     7     3     4    1
     8     4     5    1
     9     5     6    1
    10     6     7   ar
    11     7     8   ar
    12     8    18    1
    13    18    19    1
    14     8     9   ar
    15     9    20    1
    16    20    21    1
    17     9    10   ar
    18    10    11   ar
    19    11    12    1
    20    12    13    1
    21    13    14    1
    22    14    15    1
    23    14     1    1
    24    12     3    1
    25    11     6   ar
    26    15    16    1
    27    15    17    1
@<TRIPOS>MOLECULE
*****
 25 27 0 0 0
SMALL
GASTEIGER

@<TRIPOS>ATOM
      1 C          60.7569   89.3275    9.6914 C.3     1  UNL1        0.0302
      2 C          61.9051   90.2268    9.3411 C.3     1  UNL1        0.0736
      3 N          62.8137   90.7378   10.4197 N.3     1  UNL1       -0.2699
      4 C          63.9619   91.6372   10.0693 C.3     1  UNL1        0.0770
      5 C          64.8705   92.1482   11.1479 C.3     1  UNL1        0.0435
      6 C          64.6308   91.7599   12.5768 C.ar    1  UNL1       -0.0203
      7 C          65.5393   92.2709   13.6554 C.ar    1  UNL1        0.0356
      8 C          65.2997   91.8827   15.0843 C.ar    1  UNL1        0.1721
      9 C          64.1514   90.9834   15.4346 C.ar    1  UNL1        0.1721
     10 C          63.2429   90.4723   14.3560 C.ar    1  UNL1        0.0368
     11 C          63.4825   90.8606   12.9271 C.ar    1  UNL1       -0.0084
     12 C          62.5740   90.3495   11.8485 C.3     1  UNL1        0.0812
     13 C          61.4257   89.4502   12.1988 C.3     1  UNL1        0.0360
     14 C          60.5172   88.9392   11.1202 C.3     1  UNL1        0.0538
     15 N          59.3689   88.0398   11.4706 N.3     1  UNL1       -0.3221
     16 H          59.3562   87.8814   12.4782 H       1  UNL1        0.1188
     17 H          59.4759   87.1479   10.9875 H       1  UNL1        0.1188
     18 O          66.2082   92.3937   16.1629 O.3     1  UNL1       -0.4684
     19 C          67.6838   92.4971   15.9140 C.3     1  UNL1        0.2526
     20 O          63.9117   90.5950   16.8636 O.3     1  UNL1       -0.4684
     21 C          63.1796   89.3254   17.1830 C.3     1  UNL1        0.2526
     22 C          59.8483   88.8164    8.6128 C.3     1  UNL1        0.0027
     23 C          60.2048   87.5686    7.8606 C.3     1  UNL1        0.0001
     24 C          62.0828   86.0164    8.7629 C.3     1  UNL1        0.0000
     25 C          60.6258   86.3375    8.6070 C.3     1  UNL1        0.0000
@<TRIPOS>BOND
     1    24    25    1
     2    25    23    1
     3    23    22    1
     4     1    22    1
     5     1     2    1
     6     2     3    1
     7     3     4    1
     8     4     5    1
     9     5     6    1
    10     6     7   ar
    11     7     8   ar
    12     8    18    1
    13    18    19    1
    14     8     9   ar
    15     9    20    1
    16    20    21    1
    17     9    10   ar
    18    10    11   ar
    19    11    12    1
    20    12    13    1
    21    13    14    1
    22    14    15    1
    23    14     1    1
    24    12     3    1
    25    11     6   ar
    26    15    16    1
    27    15    17    1
@<TRIPOS>MOLECULE
*****
 25 27 0 0 0
SMALL
GASTEIGER

@<TRIPOS>ATOM
      1 C          62.5095   88.9959   11.1090 C.3     1  UNL1        0.0302
      2 C          63.2203   88.7758   12.4114 C.3     1  UNL1        0.0736
      3 N          63.4385   87.3818   12.9204 N.3     1  UNL1       -0.2699
      4 C          64.1494   87.1616   14.2229 C.3     1  UNL1        0.0770
      5 C          64.3676   85.7676   14.7319 C.3     1  UNL1        0.0435
      6 C          63.8750   84.5938   13.9385 C.ar    1  UNL1       -0.0203
      7 C          64.0933   83.1997   14.4475 C.ar    1  UNL1        0.0356
      8 C          63.6007   82.0259   13.6542 C.ar    1  UNL1        0.1721
      9 C          62.8899   82.2461   12.3518 C.ar    1  UNL1        0.1721
     10 C          62.6717   83.6401   11.8428 C.ar    1  UNL1        0.0368
     11 C          63.1642   84.8139   12.6361 C.ar    1  UNL1       -0.0084
     12 C          62.9460   86.2079   12.1271 C.3     1  UNL1        0.0812
     13 C          62.2352   86.4281   10.8247 C.3     1  UNL1        0.0360
     14 C          62.0169   87.8221   10.3157 C.3     1  UNL1        0.0538
     15 N          61.3061   88.0422    9.0132 N.3     1  UNL1       -0.3221
     16 H          61.0434   87.1416    8.6127 H       1  UNL1        0.1188
     17 H          61.9238   88.5342    8.3676 H       1  UNL1        0.1188
     18 O          63.8190   80.6319   14.1632 O.3     1  UNL1       -0.4684
     19 C          62.7110   79.6237   14.0873 C.3     1  UNL1        0.2526
     20 O          62.3973   81.0722   11.5584 O.3     1  UNL1       -0.4684
     21 C          63.1547   80.6147   10.3472 C.3     1  UNL1        0.2526
     22 C          62.2912   90.3899   10.6000 C.3     1  UNL1        0.0027
     23 C          61.0773   91.1619   11.0245 C.3     1  UNL1        0.0001
     24 C          59.2855   89.7107   12.2219 C.3     1  UNL1        0.0000
     25 C          59.7309   90.5007   11.0270 C.3     1  UNL1        0.0000
@<TRIPOS>BOND
     1    24    25    1
     2    25    23    1
     3    23    22    1
     4     1    22    1
     5     1     2    1
     6     2     3    1
     7     3     4    1
     8     4     5    1
     9     5     6    1
    10     6     7   ar
    11     7     8   ar
    12     8    18    1
    13    18    19    1
    14     8     9   ar
    15     9    20    1
    16    20    21    1
    17     9    10   ar
    18    10    11   ar
    19    11    12    1
    20    12    13    1
    21    13    14    1
    22    14    15    1
    23    14     1    1
    24    12     3    1
    25    11     6   ar
    26    15    16    1
    27    15    17    1
