@<TRIPOS>MOLECULE
*****
 24 26 0 0 0
SMALL
GASTEIGER

@<TRIPOS>ATOM
      1 C          61.5682   88.1894   10.7139 C.3     1  UNL1        0.1410
      2 O          62.5249   88.2399   11.8680 O.3     1  UNL1       -0.3771
      3 H          62.4525   89.0999   12.3106 H       1  UNL1        0.2112
      4 C          62.1131   86.8482   10.3207 C.ar    1  UNL1        0.0070
      5 C          62.6177   86.6232    8.9263 C.ar    1  UNL1       -0.0017
      6 C          63.1626   85.2821    8.5332 C.ar    1  UNL1       -0.0002
      7 C          63.2029   84.1661    9.5346 C.ar    1  UNL1       -0.0000
      8 C          62.6983   84.3911   10.9291 C.ar    1  UNL1       -0.0002
      9 C          62.1534   85.7322   11.3222 C.ar    1  UNL1       -0.0017
     10 C          62.7385   83.2751   11.9305 C.ar    1  UNL1       -0.0000
     11 C          62.8656   81.8546   11.4658 C.ar    1  UNL1       -0.0000
     12 C          62.9059   80.7386   12.4672 C.ar    1  UNL1       -0.0000
     13 C          62.8191   81.0430   13.9334 C.ar    1  UNL1        0.0000
     14 C          62.6920   82.4635   14.3981 C.ar    1  UNL1       -0.0000
     15 C          62.6517   83.5795   13.3967 C.ar    1  UNL1       -0.0000
     16 C          60.6114   88.1389    9.5598 C.ar    1  UNL1        0.0825
     17 C          59.6446   87.0309    9.2638 C.ar    1  UNL1        0.1157
     18 N          58.8891   87.3947    8.0200 N.ar    1  UNL1       -0.2228
     19 C          59.3891   88.7277    7.5473 C.ar    1  UNL1        0.1749
     20 N          60.4535   89.1876    8.4989 N.ar    1  UNL1       -0.3361
     21 H          60.9596   90.0298    8.4379 H       1  UNL1        0.1673
     22 C          59.6581   89.6350   11.7197 C.3     1  UNL1        0.0031
     23 C          61.0232   89.5304   11.1070 C.3     1  UNL1        0.0340
     24 C          61.8434   90.7670   10.8873 C.3     1  UNL1        0.0031
@<TRIPOS>BOND
     1    22    23    1
     2    23    24    1
     3    23     1    1
     4     1     2    1
     5     1     4    1
     6     4     5   ar
     7     5     6   ar
     8     6     7   ar
     9     7     8   ar
    10     8    10    1
    11    10    11   ar
    12    11    12   ar
    13    12    13   ar
    14    13    14   ar
    15    14    15   ar
    16     8     9   ar
    17     1    16    1
    18    16    17   ar
    19    17    18   ar
    20    18    19   ar
    21    19    20   ar
    22     9     4   ar
    23    20    16   ar
    24    15    10   ar
    25     2     3    1
    26    20    21    1
@<TRIPOS>MOLECULE
*****
 24 26 0 0 0
SMALL
GASTEIGER

@<TRIPOS>ATOM
      1 C          63.2931   84.7378   13.4771 C.3     1  UNL1        0.1410
      2 O          63.4421   86.2299   13.4386 O.3     1  UNL1       -0.3771
      3 H          63.4660   86.5759   14.3444 H       1  UNL1        0.2112
      4 C          63.1806   84.7104   11.9815 C.ar    1  UNL1        0.0070
      5 C          63.9983   83.7368   11.1856 C.ar    1  UNL1       -0.0017
      6 C          63.8858   83.7095    9.6901 C.ar    1  UNL1       -0.0002
      7 C          62.9556   84.6556    8.9905 C.ar    1  UNL1       -0.0000
      8 C          62.1379   85.6292    9.7864 C.ar    1  UNL1       -0.0002
      9 C          62.2504   85.6566   11.2819 C.ar    1  UNL1       -0.0017
     10 C          61.2076   86.5753    9.0868 C.ar    1  UNL1       -0.0000
     11 C          61.2427   88.0392    9.4119 C.ar    1  UNL1       -0.0000
     12 C          60.3124   88.9854    8.7123 C.ar    1  UNL1       -0.0000
     13 C          59.3472   88.4676    7.6876 C.ar    1  UNL1        0.0000
     14 C          59.3121   87.0038    7.3624 C.ar    1  UNL1       -0.0000
     15 C          60.2424   86.0576    8.0620 C.ar    1  UNL1       -0.0000
     16 C          63.1441   83.2458   13.5156 C.ar    1  UNL1        0.0825
     17 C          64.1633   82.2708   14.0261 C.ar    1  UNL1        0.1157
     18 N          63.5988   80.8891   13.8764 N.ar    1  UNL1       -0.2228
     19 C          62.2306   81.0102   13.2733 C.ar    1  UNL1        0.1749
     20 N          61.9496   82.4666   13.0503 N.ar    1  UNL1       -0.3361
     21 H          61.1259   82.8448   12.6661 H       1  UNL1        0.1673
     22 C          64.6482   85.2987   15.6216 C.3     1  UNL1        0.0031
     23 C          63.4056   84.7652   14.9726 C.3     1  UNL1        0.0340
     24 C          62.2753   84.2591   15.8191 C.3     1  UNL1        0.0031
@<TRIPOS>BOND
     1    22    23    1
     2    23    24    1
     3    23     1    1
     4     1     2    1
     5     1     4    1
     6     4     5   ar
     7     5     6   ar
     8     6     7   ar
     9     7     8   ar
    10     8    10    1
    11    10    11   ar
    12    11    12   ar
    13    12    13   ar
    14    13    14   ar
    15    14    15   ar
    16     8     9   ar
    17     1    16    1
    18    16    17   ar
    19    17    18   ar
    20    18    19   ar
    21    19    20   ar
    22     9     4   ar
    23    20    16   ar
    24    15    10   ar
    25     2     3    1
    26    20    21    1
@<TRIPOS>MOLECULE
*****
 24 26 0 0 0
SMALL
GASTEIGER

@<TRIPOS>ATOM
      1 C          62.7577   82.7767   12.3933 C.3     1  UNL1        0.1410
      2 O          62.2894   81.7492   11.4061 O.3     1  UNL1       -0.3771
      3 H          62.2294   80.8851   11.8427 H       1  UNL1        0.2112
      4 C          62.8110   83.8027   11.3003 C.ar    1  UNL1        0.0070
      5 C          63.4719   83.4738    9.9945 C.ar    1  UNL1       -0.0017
      6 C          63.5252   84.4998    8.9016 C.ar    1  UNL1       -0.0002
      7 C          62.9175   85.8546    9.1144 C.ar    1  UNL1       -0.0000
      8 C          62.2567   86.1835   10.4202 C.ar    1  UNL1       -0.0002
      9 C          62.2034   85.1575   11.5131 C.ar    1  UNL1       -0.0017
     10 C          61.6490   87.5383   10.6330 C.ar    1  UNL1       -0.0000
     11 C          60.2788   87.6602   11.2308 C.ar    1  UNL1       -0.0000
     12 C          59.6712   89.0150   11.4436 C.ar    1  UNL1       -0.0000
     13 C          60.4338   90.2479   11.0586 C.ar    1  UNL1        0.0000
     14 C          61.8041   90.1260   10.4607 C.ar    1  UNL1       -0.0000
     15 C          62.4117   88.7712   10.2479 C.ar    1  UNL1       -0.0000
     16 C          63.2261   83.8043   13.3806 C.ar    1  UNL1        0.0825
     17 C          62.4045   84.4094   14.4801 C.ar    1  UNL1        0.1157
     18 N          63.2689   85.3863   15.2208 N.ar    1  UNL1       -0.2228
     19 C          64.6247   85.3849   14.5790 C.ar    1  UNL1        0.1749
     20 N          64.5983   84.4072   13.4418 N.ar    1  UNL1       -0.3361
     21 H          65.3496   84.1980   12.8409 H       1  UNL1        0.1673
     22 C          63.9703   81.1180   13.9833 C.3     1  UNL1        0.0031
     23 C          62.7044   81.7509   13.4863 C.3     1  UNL1        0.0340
     24 C          61.3852   81.3579   14.0825 C.3     1  UNL1        0.0031
@<TRIPOS>BOND
     1    22    23    1
     2    23    24    1
     3    23     1    1
     4     1     2    1
     5     1     4    1
     6     4     5   ar
     7     5     6   ar
     8     6     7   ar
     9     7     8   ar
    10     8    10    1
    11    10    11   ar
    12    11    12   ar
    13    12    13   ar
    14    13    14   ar
    15    14    15   ar
    16     8     9   ar
    17     1    16    1
    18    16    17   ar
    19    17    18   ar
    20    18    19   ar
    21    19    20   ar
    22     9     4   ar
    23    20    16   ar
    24    15    10   ar
    25     2     3    1
    26    20    21    1
@<TRIPOS>MOLECULE
*****
 24 26 0 0 0
SMALL
GASTEIGER

@<TRIPOS>ATOM
      1 C          62.8619   82.7854   14.0529 C.3     1  UNL1        0.1410
      2 O          62.3517   82.8640   15.4612 O.3     1  UNL1       -0.3771
      3 H          61.8801   82.0452   15.6805 H       1  UNL1        0.2112
      4 C          63.3450   84.2023   14.1488 C.ar    1  UNL1        0.0070
      5 C          64.2460   84.6129   15.2755 C.ar    1  UNL1       -0.0017
      6 C          64.7290   86.0297   15.3713 C.ar    1  UNL1       -0.0002
      7 C          64.3110   87.0360   14.3404 C.ar    1  UNL1       -0.0000
      8 C          63.4100   86.6254   13.2137 C.ar    1  UNL1       -0.0002
      9 C          62.9270   85.2085   13.1178 C.ar    1  UNL1       -0.0017
     10 C          62.9920   87.6316   12.1828 C.ar    1  UNL1       -0.0000
     11 C          63.2793   89.0882   12.3967 C.ar    1  UNL1       -0.0000
     12 C          62.8613   90.0944   11.3658 C.ar    1  UNL1       -0.0000
     13 C          62.1560   89.6441   10.1209 C.ar    1  UNL1        0.0000
     14 C          61.8687   88.1875    9.9070 C.ar    1  UNL1       -0.0000
     15 C          62.2867   87.1813   10.9379 C.ar    1  UNL1       -0.0000
     16 C          63.3721   82.7068   12.6445 C.ar    1  UNL1        0.0825
     17 C          64.8064   82.8149   12.2190 C.ar    1  UNL1        0.1157
     18 N          64.8583   82.6812   10.7258 N.ar    1  UNL1       -0.2228
     19 C          63.4560   82.4905   10.2285 C.ar    1  UNL1        0.1749
     20 N          62.5375   82.5063   11.4143 N.ar    1  UNL1       -0.3361
     21 H          61.5587   82.4033   11.3895 H       1  UNL1        0.1673
     22 C          60.9175   81.0630   14.1014 C.3     1  UNL1        0.0031
     23 C          62.3789   81.3686   13.9570 C.3     1  UNL1        0.0340
     24 C          63.3573   80.2572   13.7167 C.3     1  UNL1        0.0031
@<TRIPOS>BOND
     1    22    23    1
     2    23    24    1
     3    23     1    1
     4     1     2    1
     5     1     4    1
     6     4     5   ar
     7     5     6   ar
     8     6     7   ar
     9     7     8   ar
    10     8    10    1
    11    10    11   ar
    12    11    12   ar
    13    12    13   ar
    14    13    14   ar
    15    14    15   ar
    16     8     9   ar
    17     1    16    1
    18    16    17   ar
    19    17    18   ar
    20    18    19   ar
    21    19    20   ar
    22     9     4   ar
    23    20    16   ar
    24    15    10   ar
    25     2     3    1
    26    20    21    1
@<TRIPOS>MOLECULE
*****
 24 26 0 0 0
SMALL
GASTEIGER

@<TRIPOS>ATOM
      1 C          60.5419   88.2438   11.0632 C.3     1  UNL1        0.1410
      2 O          59.3126   87.4481   10.7381 O.3     1  UNL1       -0.3771
      3 H          58.5262   87.9323   11.0347 H       1  UNL1        0.2112
      4 C          61.4014   87.1148   10.5766 C.ar    1  UNL1        0.0070
      5 C          61.9238   87.1221    9.1705 C.ar    1  UNL1       -0.0017
      6 C          62.7832   85.9932    8.6840 C.ar    1  UNL1       -0.0002
      7 C          63.1204   84.8570    9.6034 C.ar    1  UNL1       -0.0000
      8 C          62.5980   84.8497   11.0095 C.ar    1  UNL1       -0.0002
      9 C          61.7385   85.9786   11.4961 C.ar    1  UNL1       -0.0017
     10 C          62.9351   83.7135   11.9289 C.ar    1  UNL1       -0.0000
     11 C          62.7265   82.2978   11.4795 C.ar    1  UNL1       -0.0000
     12 C          63.0636   81.1616   12.3990 C.ar    1  UNL1       -0.0000
     13 C          63.6093   81.4411   13.7679 C.ar    1  UNL1        0.0000
     14 C          63.8180   82.8569   14.2173 C.ar    1  UNL1       -0.0000
     15 C          63.4809   83.9931   13.2979 C.ar    1  UNL1       -0.0000
     16 C          61.7712   89.0394   11.3884 C.ar    1  UNL1        0.0825
     17 C          62.5718   89.8600   10.4211 C.ar    1  UNL1        0.1157
     18 N          63.7112   90.4820   11.1729 N.ar    1  UNL1       -0.2228
     19 C          63.6146   90.0458   12.6049 C.ar    1  UNL1        0.1749
     20 N          62.4157   89.1543   12.7381 N.ar    1  UNL1       -0.3361
     21 H          62.1062   88.7207   13.5660 H       1  UNL1        0.1673
     22 C          59.7445   90.7090   10.8713 C.3     1  UNL1        0.0031
     23 C          59.6825   89.3727   11.5499 C.3     1  UNL1        0.0340
     24 C          58.7609   89.1654   12.7152 C.3     1  UNL1        0.0031
@<TRIPOS>BOND
     1    22    23    1
     2    23    24    1
     3    23     1    1
     4     1     2    1
     5     1     4    1
     6     4     5   ar
     7     5     6   ar
     8     6     7   ar
     9     7     8   ar
    10     8    10    1
    11    10    11   ar
    12    11    12   ar
    13    12    13   ar
    14    13    14   ar
    15    14    15   ar
    16     8     9   ar
    17     1    16    1
    18    16    17   ar
    19    17    18   ar
    20    18    19   ar
    21    19    20   ar
    22     9     4   ar
    23    20    16   ar
    24    15    10   ar
    25     2     3    1
    26    20    21    1
@<TRIPOS>MOLECULE
*****
 24 26 0 0 0
SMALL
GASTEIGER

@<TRIPOS>ATOM
      1 C          65.5814   92.9917   11.4395 C.3     1  UNL1        0.1410
      2 O          64.6528   93.0419   10.2627 O.3     1  UNL1       -0.3771
      3 H          64.8842   93.7976    9.7003 H       1  UNL1        0.2112
      4 C          64.7966   91.8476   12.0099 C.ar    1  UNL1        0.0070
      5 C          64.9268   91.4995   13.4632 C.ar    1  UNL1       -0.0017
      6 C          64.1420   90.3555   14.0335 C.ar    1  UNL1       -0.0002
      7 C          63.2272   89.5595   13.1506 C.ar    1  UNL1       -0.0000
      8 C          63.0971   89.9076   11.6974 C.ar    1  UNL1       -0.0002
      9 C          63.8818   91.0516   11.1271 C.ar    1  UNL1       -0.0017
     10 C          62.1822   89.1116   10.8145 C.ar    1  UNL1       -0.0000
     11 C          61.3026   89.8111    9.8211 C.ar    1  UNL1       -0.0000
     12 C          60.3877   89.0151    8.9383 C.ar    1  UNL1       -0.0000
     13 C          60.3525   87.5197    9.0488 C.ar    1  UNL1        0.0000
     14 C          61.2322   86.8201   10.0421 C.ar    1  UNL1       -0.0000
     15 C          62.1470   87.6161   10.9250 C.ar    1  UNL1       -0.0000
     16 C          66.5100   92.9414   12.6164 C.ar    1  UNL1        0.0825
     17 C          67.6890   92.0269   12.7708 C.ar    1  UNL1        0.1157
     18 N          68.3304   92.3172   14.0955 N.ar    1  UNL1       -0.2228
     19 C          67.5478   93.4110   14.7597 C.ar    1  UNL1        0.1749
     20 N          66.4228   93.7968   13.8456 N.ar    1  UNL1       -0.3361
     21 H          65.7459   94.4897   14.0215 H       1  UNL1        0.1673
     22 C          66.1238   95.5313   11.3627 C.3     1  UNL1        0.0031
     23 C          66.3661   94.1357   10.8692 C.3     1  UNL1        0.0340
     24 C          67.3933   93.8841    9.8053 C.3     1  UNL1        0.0031
@<TRIPOS>BOND
     1    22    23    1
     2    23    24    1
     3    23     1    1
     4     1     2    1
     5     1     4    1
     6     4     5   ar
     7     5     6   ar
     8     6     7   ar
     9     7     8   ar
    10     8    10    1
    11    10    11   ar
    12    11    12   ar
    13    12    13   ar
    14    13    14   ar
    15    14    15   ar
    16     8     9   ar
    17     1    16    1
    18    16    17   ar
    19    17    18   ar
    20    18    19   ar
    21    19    20   ar
    22     9     4   ar
    23    20    16   ar
    24    15    10   ar
    25     2     3    1
    26    20    21    1
@<TRIPOS>MOLECULE
*****
 24 26 0 0 0
SMALL
GASTEIGER

@<TRIPOS>ATOM
      1 C          62.8526   84.5648   11.6211 C.3     1  UNL1        0.1410
      2 O          62.6763   84.4728   10.1343 O.3     1  UNL1       -0.3771
      3 H          62.9891   83.6084    9.8245 H       1  UNL1        0.2112
      4 C          62.3953   85.9930   11.5870 C.ar    1  UNL1        0.0070
      5 C          61.0820   86.3451   10.9535 C.ar    1  UNL1       -0.0017
      6 C          60.6247   87.7732   10.9194 C.ar    1  UNL1       -0.0002
      7 C          61.4807   88.8493   11.5188 C.ar    1  UNL1       -0.0000
      8 C          62.7940   88.4972   12.1524 C.ar    1  UNL1       -0.0002
      9 C          63.2512   87.0691   12.1864 C.ar    1  UNL1       -0.0017
     10 C          63.6499   89.5733   12.7518 C.ar    1  UNL1       -0.0000
     11 C          63.8635   90.8608   12.0124 C.ar    1  UNL1       -0.0000
     12 C          64.7194   91.9369   12.6119 C.ar    1  UNL1       -0.0000
     13 C          65.3619   91.7255   13.9507 C.ar    1  UNL1        0.0000
     14 C          65.1483   90.4380   14.6901 C.ar    1  UNL1       -0.0000
     15 C          64.2923   89.3620   14.0907 C.ar    1  UNL1       -0.0000
     16 C          63.0289   84.6567   13.1078 C.ar    1  UNL1        0.0825
     17 C          64.3376   84.7111   13.8388 C.ar    1  UNL1        0.1157
     18 N          64.0449   84.7985   15.3075 N.ar    1  UNL1       -0.2228
     19 C          62.5553   84.7981   15.4841 C.ar    1  UNL1        0.1749
     20 N          61.9274   84.7105   14.1246 N.ar    1  UNL1       -0.3361
     21 H          60.9618   84.6916   13.9334 H       1  UNL1        0.1673
     22 C          64.6103   82.7500   11.0153 C.3     1  UNL1        0.0031
     23 C          63.3099   83.1366   11.6552 C.3     1  UNL1        0.0340
     24 C          62.4668   82.0950   12.3292 C.3     1  UNL1        0.0031
@<TRIPOS>BOND
     1    22    23    1
     2    23    24    1
     3    23     1    1
     4     1     2    1
     5     1     4    1
     6     4     5   ar
     7     5     6   ar
     8     6     7   ar
     9     7     8   ar
    10     8    10    1
    11    10    11   ar
    12    11    12   ar
    13    12    13   ar
    14    13    14   ar
    15    14    15   ar
    16     8     9   ar
    17     1    16    1
    18    16    17   ar
    19    17    18   ar
    20    18    19   ar
    21    19    20   ar
    22     9     4   ar
    23    20    16   ar
    24    15    10   ar
    25     2     3    1
    26    20    21    1
@<TRIPOS>MOLECULE
*****
 24 26 0 0 0
SMALL
GASTEIGER

@<TRIPOS>ATOM
      1 C          62.8980   83.9655   12.8198 C.3     1  UNL1        0.1410
      2 O          62.7970   83.4887   11.4012 O.3     1  UNL1       -0.3771
      3 H          62.9341   82.5289   11.3722 H       1  UNL1        0.2112
      4 C          62.7627   85.3845   12.3526 C.ar    1  UNL1        0.0070
      5 C          63.5117   86.4792   13.0528 C.ar    1  UNL1       -0.0017
      6 C          63.3764   87.8981   12.5855 C.ar    1  UNL1       -0.0002
      7 C          62.4922   88.2223   11.4181 C.ar    1  UNL1       -0.0000
      8 C          61.7431   87.1275   10.7179 C.ar    1  UNL1       -0.0002
      9 C          61.8784   85.7086   11.1851 C.ar    1  UNL1       -0.0017
     10 C          60.8589   87.4516    9.5504 C.ar    1  UNL1       -0.0000
     11 C          60.6212   88.8812    9.1637 C.ar    1  UNL1       -0.0000
     12 C          59.7369   89.2053    7.9962 C.ar    1  UNL1       -0.0000
     13 C          59.0903   88.0998    7.2154 C.ar    1  UNL1        0.0000
     14 C          59.3280   86.6701    7.6021 C.ar    1  UNL1       -0.0000
     15 C          60.2123   86.3460    8.7696 C.ar    1  UNL1       -0.0000
     16 C          62.9989   84.4422   14.2384 C.ar    1  UNL1        0.0825
     17 C          64.2672   84.6332   15.0163 C.ar    1  UNL1        0.1157
     18 N          63.9014   85.1208   16.3869 N.ar    1  UNL1       -0.2228
     19 C          62.4070   85.2311   16.4561 C.ar    1  UNL1        0.1749
     20 N          61.8492   84.8118   15.1283 N.ar    1  UNL1       -0.3361
     21 H          60.8960   84.7839   14.8838 H       1  UNL1        0.1673
     22 C          64.2620   81.7577   12.9437 C.3     1  UNL1        0.0031
     23 C          63.0332   82.5466   13.2871 C.3     1  UNL1        0.0340
     24 C          61.9397   81.9164   14.0978 C.3     1  UNL1        0.0031
@<TRIPOS>BOND
     1    22    23    1
     2    23    24    1
     3    23     1    1
     4     1     2    1
     5     1     4    1
     6     4     5   ar
     7     5     6   ar
     8     6     7   ar
     9     7     8   ar
    10     8    10    1
    11    10    11   ar
    12    11    12   ar
    13    12    13   ar
    14    13    14   ar
    15    14    15   ar
    16     8     9   ar
    17     1    16    1
    18    16    17   ar
    19    17    18   ar
    20    18    19   ar
    21    19    20   ar
    22     9     4   ar
    23    20    16   ar
    24    15    10   ar
    25     2     3    1
    26    20    21    1
@<TRIPOS>MOLECULE
*****
 24 26 0 0 0
SMALL
GASTEIGER

@<TRIPOS>ATOM
      1 C          62.7197   83.2718   13.5467 C.3     1  UNL1        0.1410
      2 O          62.1246   83.7148   14.8504 O.3     1  UNL1       -0.3771
      3 H          61.8542   82.9371   15.3632 H       1  UNL1        0.2112
      4 C          62.8376   84.7032   13.1141 C.ar    1  UNL1        0.0070
      5 C          63.7328   85.6428   13.8662 C.ar    1  UNL1       -0.0017
      6 C          63.8506   87.0742   13.4336 C.ar    1  UNL1       -0.0002
      7 C          63.0733   87.5660   12.2487 C.ar    1  UNL1       -0.0000
      8 C          62.1780   86.6264   11.4966 C.ar    1  UNL1       -0.0002
      9 C          62.0602   85.1951   11.9292 C.ar    1  UNL1       -0.0017
     10 C          61.4007   87.1183   10.3118 C.ar    1  UNL1       -0.0000
     11 C          60.9101   86.1458    9.2804 C.ar    1  UNL1       -0.0000
     12 C          60.1328   86.6376    8.0956 C.ar    1  UNL1       -0.0000
     13 C          59.8459   88.1019    7.9421 C.ar    1  UNL1        0.0000
     14 C          60.3365   89.0743    8.9734 C.ar    1  UNL1       -0.0000
     15 C          61.1138   88.5825   10.1583 C.ar    1  UNL1       -0.0000
     16 C          63.3147   82.8288   12.2430 C.ar    1  UNL1        0.0825
     17 C          64.6095   83.3082   11.6566 C.ar    1  UNL1        0.1157
     18 N          64.8145   82.6043   10.3479 N.ar    1  UNL1       -0.2228
     19 C          63.6464   81.6898   10.1256 C.ar    1  UNL1        0.1749
     20 N          62.7195   81.8285   11.2968 N.ar    1  UNL1       -0.3361
     21 H          61.8698   81.3476   11.4224 H       1  UNL1        0.1673
     22 C          61.2484   81.2328   14.2009 C.3     1  UNL1        0.0031
     23 C          62.6018   81.8404   13.9793 C.3     1  UNL1        0.0340
     24 C          63.8375   81.0165   14.1903 C.3     1  UNL1        0.0031
@<TRIPOS>BOND
     1    22    23    1
     2    23    24    1
     3    23     1    1
     4     1     2    1
     5     1     4    1
     6     4     5   ar
     7     5     6   ar
     8     6     7   ar
     9     7     8   ar
    10     8    10    1
    11    10    11   ar
    12    11    12   ar
    13    12    13   ar
    14    13    14   ar
    15    14    15   ar
    16     8     9   ar
    17     1    16    1
    18    16    17   ar
    19    17    18   ar
    20    18    19   ar
    21    19    20   ar
    22     9     4   ar
    23    20    16   ar
    24    15    10   ar
    25     2     3    1
    26    20    21    1
