@<TRIPOS>MOLECULE
*****
 34 37 0 0 0
SMALL
GASTEIGER

@<TRIPOS>ATOM
      1 C          66.9064   93.1014   10.8890 C.3     1  UNL1        0.0327
      2 C          66.1421   92.3377   11.9296 C.ar    1  UNL1       -0.0014
      3 C          66.8336   91.8705   13.1759 C.ar    1  UNL1        0.0947
      4 N          66.0693   91.1068   14.2164 N.ar    1  UNL1       -0.2396
      5 C          64.6133   90.8104   14.0105 C.ar    1  UNL1        0.1358
      6 C          63.9217   91.2776   12.7641 C.ar    1  UNL1        0.0853
      7 C          64.6861   92.0413   11.7237 C.ar    1  UNL1        0.0148
      8 C          63.8490   90.0467   15.0510 C.2     1  UNL1        0.2287
      9 O          63.1799   90.7776   16.1772 O.2     1  UNL1       -0.2836
     10 C          63.7536   88.5522   14.9653 C.2     1  UNL1        0.1190
     11 N          64.0541   87.8545   13.6719 N.2     1  UNL1       -0.1997
     12 C          63.9588   86.3600   13.5862 C.2     1  UNL1        0.3387
     13 N          63.5629   85.5632   14.7939 N.2     1  UNL1       -0.0120
     14 C          63.2624   86.2609   16.0872 C.2     1  UNL1        0.3629
     15 N          62.8505   85.7447   17.4340 N.2     1  UNL1       -0.0342
     16 C          62.6913   86.9202   18.3521 C.2     1  UNL1        0.2321
     17 C          63.0048   88.1629   17.5727 C.2     1  UNL1        0.0425
     18 C          63.3577   87.7555   16.1729 C.3     1  UNL1        0.1810
     19 N          62.4658   90.9812   12.5582 N.pl3   1  UNL1       -0.2134
     20 H          61.7859   91.4698   13.0762 H       1  UNL1        0.1738
     21 S          62.0457   89.9405   11.5632 S.O2    1  UNL1        0.0736
     22 O          61.0949   89.3624   12.5691 O.2     1  UNL1       -0.1499
     23 O          62.9964   90.5185   10.5572 O.2     1  UNL1       -0.1499
     24 C          61.6256   88.8996   10.5681 C.ar    1  UNL1        0.1252
     25 C          60.4381   89.1428    9.6845 C.ar    1  UNL1        0.0210
     26 C          60.0180   88.1019    8.6894 C.ar    1  UNL1        0.0127
     27 C          60.7854   86.8179    8.5780 C.ar    1  UNL1        0.0616
     28 CL         60.3652   85.7771    7.5829 Cl      1  UNL1       -0.0823
     29 C          61.9728   86.5747    9.4616 C.ar    1  UNL1        0.0833
     30 C          62.3930   87.6155   10.4566 C.ar    1  UNL1        0.0249
     31 C          62.7402   85.2907    9.3502 C.3     1  UNL1        0.4194
     32 F          63.5076   84.0067    9.2388 F       1  UNL1       -0.1658
     33 F          63.4257   85.8070    8.1199 F       1  UNL1       -0.1658
     34 F          62.0547   84.7743   10.5805 F       1  UNL1       -0.1658
@<TRIPOS>BOND
     1     1     2    1
     2     2     3   ar
     3     3     4   ar
     4     4     5   ar
     5     5     8    1
     6     8     9    2
     7     8    10    1
     8    10    11    2
     9    11    12    1
    10    12    13    2
    11    13    14    1
    12    14    15    2
    13    15    16    1
    14    16    17    2
    15    17    18    1
    16     5     6   ar
    17     6    19    1
    18    19    21    1
    19    21    22    2
    20    21    23    2
    21    21    24    1
    22    24    25   ar
    23    25    26   ar
    24    26    27   ar
    25    27    28    1
    26    27    29   ar
    27    29    31    1
    28    31    32    1
    29    31    33    1
    30    31    34    1
    31    29    30   ar
    32     6     7   ar
    33     7     2   ar
    34    18    10    1
    35    30    24   ar
    36    18    14    1
    37    19    20    1
@<TRIPOS>MOLECULE
*****
 34 37 0 0 0
SMALL
GASTEIGER

@<TRIPOS>ATOM
      1 C          59.0210   88.2704    7.3816 C.3     1  UNL1        0.0327
      2 C          59.9206   87.7078    8.4420 C.ar    1  UNL1       -0.0014
      3 C          60.5370   86.3525    8.2610 C.ar    1  UNL1        0.0947
      4 N          61.4367   85.7899    9.3213 N.ar    1  UNL1       -0.2396
      5 C          61.7198   86.5829   10.5627 C.ar    1  UNL1        0.1358
      6 C          61.1033   87.9384   10.7438 C.ar    1  UNL1        0.0853
      7 C          60.2038   88.5008    9.6834 C.ar    1  UNL1        0.0148
      8 C          62.6193   86.0204   11.6231 C.2     1  UNL1        0.2287
      9 O          63.1640   86.9153   12.6968 O.2     1  UNL1       -0.2836
     10 C          62.9743   84.5631   11.6098 C.2     1  UNL1        0.1190
     11 N          63.4911   83.9284   10.3528 N.2     1  UNL1       -0.1997
     12 C          63.8460   82.4712   10.3395 C.2     1  UNL1        0.3387
     13 N          63.6843   81.6484   11.5833 N.2     1  UNL1       -0.0120
     14 C          63.1676   82.2831   12.8404 C.2     1  UNL1        0.3629
     15 N          62.9048   81.7295   14.2095 N.2     1  UNL1       -0.0342
     16 C          62.3874   82.8447   15.0689 C.2     1  UNL1        0.2321
     17 C          62.3304   84.0875   14.2309 C.2     1  UNL1        0.0425
     18 C          62.8126   83.7404   12.8536 C.3     1  UNL1        0.1810
     19 N          61.3864   88.7313   11.9852 N.pl3   1  UNL1       -0.2134
     20 H          60.8464   88.5867   12.7955 H       1  UNL1        0.1738
     21 S          62.4922   89.7447   11.9919 S.O2    1  UNL1        0.0736
     22 O          62.6330   89.6010   10.5054 O.2     1  UNL1       -0.1499
     23 O          62.3515   89.8884   13.4784 O.2     1  UNL1       -0.1499
     24 C          63.5981   90.7581   11.9986 C.ar    1  UNL1        0.1252
     25 C          63.8282   91.6251   10.7964 C.ar    1  UNL1        0.0210
     26 C          64.9341   92.6385   10.8032 C.ar    1  UNL1        0.0127
     27 C          65.8100   92.7849   12.0121 C.ar    1  UNL1        0.0616
     28 CL         66.9158   93.7983   12.0189 Cl      1  UNL1       -0.0823
     29 C          65.5799   91.9178   13.2143 C.ar    1  UNL1        0.0833
     30 C          64.4740   90.9044   13.2076 C.ar    1  UNL1        0.0249
     31 C          66.4557   92.0641   14.4233 C.3     1  UNL1        0.4194
     32 F          67.3314   92.2104   15.6323 F       1  UNL1       -0.1658
     33 F          67.5487   91.3130   13.7224 F       1  UNL1       -0.1658
     34 F          65.3626   92.8152   15.1241 F       1  UNL1       -0.1658
@<TRIPOS>BOND
     1     1     2    1
     2     2     3   ar
     3     3     4   ar
     4     4     5   ar
     5     5     8    1
     6     8     9    2
     7     8    10    1
     8    10    11    2
     9    11    12    1
    10    12    13    2
    11    13    14    1
    12    14    15    2
    13    15    16    1
    14    16    17    2
    15    17    18    1
    16     5     6   ar
    17     6    19    1
    18    19    21    1
    19    21    22    2
    20    21    23    2
    21    21    24    1
    22    24    25   ar
    23    25    26   ar
    24    26    27   ar
    25    27    28    1
    26    27    29   ar
    27    29    31    1
    28    31    32    1
    29    31    33    1
    30    31    34    1
    31    29    30   ar
    32     6     7   ar
    33     7     2   ar
    34    18    10    1
    35    30    24   ar
    36    18    14    1
    37    19    20    1
@<TRIPOS>MOLECULE
*****
 34 37 0 0 0
SMALL
GASTEIGER

@<TRIPOS>ATOM
      1 C          59.3318   88.5604    7.2558 C.3     1  UNL1        0.0327
      2 C          60.1659   87.9690    8.3534 C.ar    1  UNL1       -0.0014
      3 C          60.8502   86.6502    8.1479 C.ar    1  UNL1        0.0947
      4 N          61.6842   86.0588    9.2455 N.ar    1  UNL1       -0.2396
      5 C          61.8338   86.7864   10.5487 C.ar    1  UNL1        0.1358
      6 C          61.1495   88.1053   10.7543 C.ar    1  UNL1        0.0853
      7 C          60.3155   88.6966    9.6567 C.ar    1  UNL1        0.0148
      8 C          62.6678   86.1951   11.6463 C.2     1  UNL1        0.2287
      9 O          63.1993   87.0731   12.7404 O.2     1  UNL1       -0.2836
     10 C          62.9704   84.7260   11.6500 C.2     1  UNL1        0.1190
     11 N          63.4011   84.0458   10.3843 N.2     1  UNL1       -0.1997
     12 C          63.7037   82.5768   10.3879 C.2     1  UNL1        0.3387
     13 N          63.5755   81.7876   11.6572 N.2     1  UNL1       -0.0120
     14 C          63.1448   82.4678   12.9228 C.2     1  UNL1        0.3629
     15 N          62.9314   81.9539   14.3158 N.2     1  UNL1       -0.0342
     16 C          62.4969   83.1056   15.1731 C.2     1  UNL1        0.2321
     17 C          62.4418   84.3311   14.3100 C.2     1  UNL1        0.0425
     18 C          62.8422   83.9369   12.9192 C.3     1  UNL1        0.1810
     19 N          61.2991   88.8329   12.0574 N.pl3   1  UNL1       -0.2134
     20 H          60.6304   88.7099   12.7695 H       1  UNL1        0.1738
     21 S          62.4673   89.7479   12.2757 S.O2    1  UNL1        0.0736
     22 O          62.1853   89.7567   13.7490 O.2     1  UNL1       -0.1499
     23 O          62.7495   89.7391   10.8025 O.2     1  UNL1       -0.1499
     24 C          63.6357   90.6630   12.4941 C.ar    1  UNL1        0.1252
     25 C          64.2332   90.8030   13.8628 C.ar    1  UNL1        0.0210
     26 C          65.4015   91.7181   14.0810 C.ar    1  UNL1        0.0127
     27 C          65.9724   92.4931   12.9306 C.ar    1  UNL1        0.0616
     28 CL         67.1407   93.4082   13.1489 Cl      1  UNL1       -0.0823
     29 C          65.3749   92.3531   11.5619 C.ar    1  UNL1        0.0833
     30 C          64.2066   91.4380   11.3436 C.ar    1  UNL1        0.0249
     31 C          65.9457   93.1281   10.4115 C.3     1  UNL1        0.4194
     32 F          66.5166   93.9030    9.2610 F       1  UNL1       -0.1658
     33 F          64.9702   94.2368   10.6743 F       1  UNL1       -0.1658
     34 F          66.9212   92.0193   10.1486 F       1  UNL1       -0.1658
@<TRIPOS>BOND
     1     1     2    1
     2     2     3   ar
     3     3     4   ar
     4     4     5   ar
     5     5     8    1
     6     8     9    2
     7     8    10    1
     8    10    11    2
     9    11    12    1
    10    12    13    2
    11    13    14    1
    12    14    15    2
    13    15    16    1
    14    16    17    2
    15    17    18    1
    16     5     6   ar
    17     6    19    1
    18    19    21    1
    19    21    22    2
    20    21    23    2
    21    21    24    1
    22    24    25   ar
    23    25    26   ar
    24    26    27   ar
    25    27    28    1
    26    27    29   ar
    27    29    31    1
    28    31    32    1
    29    31    33    1
    30    31    34    1
    31    29    30   ar
    32     6     7   ar
    33     7     2   ar
    34    18    10    1
    35    30    24   ar
    36    18    14    1
    37    19    20    1
@<TRIPOS>MOLECULE
*****
 34 37 0 0 0
SMALL
GASTEIGER

@<TRIPOS>ATOM
      1 C          63.8511   89.7624   16.2217 C.3     1  UNL1        0.0327
      2 C          64.0583   90.3638   14.8632 C.ar    1  UNL1       -0.0014
      3 C          65.3993   90.9197   14.4857 C.ar    1  UNL1        0.0947
      4 N          65.6066   91.5211   13.1272 N.ar    1  UNL1       -0.2396
      5 C          64.4727   91.5664   12.1463 C.ar    1  UNL1        0.1358
      6 C          63.1316   91.0105   12.5237 C.ar    1  UNL1        0.0853
      7 C          62.9244   90.4092   13.8822 C.ar    1  UNL1        0.0148
      8 C          64.6799   92.1678   10.7878 C.2     1  UNL1        0.2287
      9 O          63.5532   92.1902    9.7977 O.2     1  UNL1       -0.2836
     10 C          66.0138   92.7466   10.4193 C.2     1  UNL1        0.1190
     11 N          67.1970   91.8440   10.2314 N.2     1  UNL1       -0.1997
     12 C          68.5308   92.4228    9.8630 C.2     1  UNL1        0.3387
     13 N          68.6815   93.9043    9.6823 N.2     1  UNL1       -0.0120
     14 C          67.4983   94.8069    9.8702 C.2     1  UNL1        0.3629
     15 N          67.3435   96.2949    9.7603 N.2     1  UNL1       -0.0342
     16 C          65.9140   96.6356   10.0609 C.2     1  UNL1        0.2321
     17 C          65.1853   95.3583   10.3566 C.2     1  UNL1        0.0425
     18 C          66.1644   94.2281   10.2387 C.3     1  UNL1        0.1810
     19 N          61.9978   91.0559   11.5428 N.pl3   1  UNL1       -0.2134
     20 H          61.4490   91.8693   11.4620 H       1  UNL1        0.1738
     21 S          61.7000   89.8621   10.6849 S.O2    1  UNL1        0.0736
     22 O          62.9222   89.1745   11.2174 O.2     1  UNL1       -0.1499
     23 O          60.4779   90.5497   10.1523 O.2     1  UNL1       -0.1499
     24 C          61.4023   88.6683    9.8269 C.ar    1  UNL1        0.1252
     25 C          60.2424   88.6984    8.8763 C.ar    1  UNL1        0.0210
     26 C          59.9447   87.5044    8.0184 C.ar    1  UNL1        0.0127
     27 C          60.8069   86.2805    8.1110 C.ar    1  UNL1        0.0616
     28 CL         60.5092   85.0867    7.2530 Cl      1  UNL1       -0.0823
     29 C          61.9668   86.2504    9.0616 C.ar    1  UNL1        0.0833
     30 C          62.2645   87.4443    9.9196 C.ar    1  UNL1        0.0249
     31 C          62.8290   85.0266    9.1543 C.3     1  UNL1        0.4194
     32 F          63.6913   83.8027    9.2470 F       1  UNL1       -0.1658
     33 F          62.1602   84.6529   10.4439 F       1  UNL1       -0.1658
     34 F          63.4980   85.4002    7.8647 F       1  UNL1       -0.1658
@<TRIPOS>BOND
     1     1     2    1
     2     2     3   ar
     3     3     4   ar
     4     4     5   ar
     5     5     8    1
     6     8     9    2
     7     8    10    1
     8    10    11    2
     9    11    12    1
    10    12    13    2
    11    13    14    1
    12    14    15    2
    13    15    16    1
    14    16    17    2
    15    17    18    1
    16     5     6   ar
    17     6    19    1
    18    19    21    1
    19    21    22    2
    20    21    23    2
    21    21    24    1
    22    24    25   ar
    23    25    26   ar
    24    26    27   ar
    25    27    28    1
    26    27    29   ar
    27    29    31    1
    28    31    32    1
    29    31    33    1
    30    31    34    1
    31    29    30   ar
    32     6     7   ar
    33     7     2   ar
    34    18    10    1
    35    30    24   ar
    36    18    14    1
    37    19    20    1
@<TRIPOS>MOLECULE
*****
 34 37 0 0 0
SMALL
GASTEIGER

@<TRIPOS>ATOM
      1 C          64.2529   91.2116   16.8170 C.3     1  UNL1        0.0327
      2 C          64.4201   91.4649   15.3479 C.ar    1  UNL1       -0.0014
      3 C          65.4752   92.4159   14.8662 C.ar    1  UNL1        0.0947
      4 N          65.6425   92.6692   13.3972 N.ar    1  UNL1       -0.2396
      5 C          64.7545   91.9714   12.4100 C.ar    1  UNL1        0.1358
      6 C          63.6993   91.0203   12.8917 C.ar    1  UNL1        0.0853
      7 C          63.5321   90.7670   14.3607 C.ar    1  UNL1        0.0148
      8 C          64.9217   92.2246   10.9410 C.2     1  UNL1        0.2287
      9 O          63.8146   91.8792    9.9896 O.2     1  UNL1       -0.2836
     10 C          66.1960   92.8233   10.4234 C.2     1  UNL1        0.1190
     11 N          67.3760   91.9428   10.1365 N.2     1  UNL1       -0.1997
     12 C          68.6501   92.5414    9.6189 C.2     1  UNL1        0.3387
     13 N          68.7445   94.0206    9.3882 N.2     1  UNL1       -0.0120
     14 C          67.5645   94.9011    9.6751 C.2     1  UNL1        0.3629
     15 N          67.3621   96.3817    9.5460 N.2     1  UNL1       -0.0342
     16 C          65.9628   96.6982    9.9839 C.2     1  UNL1        0.2321
     17 C          65.3003   95.4131   10.3835 C.2     1  UNL1        0.0425
     18 C          66.2902   94.3024   10.1927 C.3     1  UNL1        0.1810
     19 N          62.8114   90.3224   11.9045 N.pl3   1  UNL1       -0.2134
     20 H          62.2552   90.8481   11.2852 H       1  UNL1        0.1738
     21 S          62.7708   88.8237   11.8609 S.O2    1  UNL1        0.0736
     22 O          61.6774   88.8831   10.8357 O.2     1  UNL1       -0.1499
     23 O          63.8642   88.7642   12.8861 O.2     1  UNL1       -0.1499
     24 C          62.7302   87.3249   11.8173 C.ar    1  UNL1        0.1252
     25 C          62.1674   86.6245   10.6162 C.ar    1  UNL1        0.0210
     26 C          62.1268   85.1256   10.5726 C.ar    1  UNL1        0.0127
     27 C          62.6490   84.3272   11.7301 C.ar    1  UNL1        0.0616
     28 CL         62.6084   82.8284   11.6864 Cl      1  UNL1       -0.0823
     29 C          63.2119   85.0276   12.9312 C.ar    1  UNL1        0.0833
     30 C          63.2525   86.5264   12.9748 C.ar    1  UNL1        0.0249
     31 C          63.7341   84.2292   14.0887 C.3     1  UNL1        0.4194
     32 F          64.2565   83.4309   15.2461 F       1  UNL1       -0.1658
     33 F          62.3569   84.1876   14.6815 F       1  UNL1       -0.1658
     34 F          65.1115   84.2708   13.4958 F       1  UNL1       -0.1658
@<TRIPOS>BOND
     1     1     2    1
     2     2     3   ar
     3     3     4   ar
     4     4     5   ar
     5     5     8    1
     6     8     9    2
     7     8    10    1
     8    10    11    2
     9    11    12    1
    10    12    13    2
    11    13    14    1
    12    14    15    2
    13    15    16    1
    14    16    17    2
    15    17    18    1
    16     5     6   ar
    17     6    19    1
    18    19    21    1
    19    21    22    2
    20    21    23    2
    21    21    24    1
    22    24    25   ar
    23    25    26   ar
    24    26    27   ar
    25    27    28    1
    26    27    29   ar
    27    29    31    1
    28    31    32    1
    29    31    33    1
    30    31    34    1
    31    29    30   ar
    32     6     7   ar
    33     7     2   ar
    34    18    10    1
    35    30    24   ar
    36    18    14    1
    37    19    20    1
@<TRIPOS>MOLECULE
*****
 34 37 0 0 0
SMALL
GASTEIGER

@<TRIPOS>ATOM
      1 C          61.6294   79.9920   13.0661 C.3     1  UNL1        0.0327
      2 C          62.3674   81.2310   13.4792 C.ar    1  UNL1       -0.0014
      3 C          62.6344   81.4959   14.9312 C.ar    1  UNL1        0.0947
      4 N          63.3723   82.7348   15.3443 N.ar    1  UNL1       -0.2396
      5 C          63.8432   83.7088   14.3052 C.ar    1  UNL1        0.1358
      6 C          63.5762   83.4439   12.8531 C.ar    1  UNL1        0.0853
      7 C          62.8383   82.2050   12.4401 C.ar    1  UNL1        0.0148
      8 C          64.5811   84.9477   14.7182 C.2     1  UNL1        0.2287
      9 O          65.9617   85.2086   14.1928 O.2     1  UNL1       -0.2836
     10 C          63.9385   85.9257   15.6566 C.2     1  UNL1        0.1190
     11 N          63.3804   85.4527   16.9661 N.2     1  UNL1       -0.1997
     12 C          62.7378   86.4306   17.9045 C.2     1  UNL1        0.3387
     13 N          62.6533   87.8816   17.5335 N.2     1  UNL1       -0.0120
     14 C          63.2114   88.3545   16.2240 C.2     1  UNL1        0.3629
     15 N          63.2729   89.7131   15.5912 N.2     1  UNL1       -0.0342
     16 C          63.9535   89.5748   14.2617 C.2     1  UNL1        0.2321
     17 C          64.3126   88.1307   14.0728 C.2     1  UNL1        0.0425
     18 C          63.8540   87.3766   15.2855 C.3     1  UNL1        0.1810
     19 N          64.0470   84.4179   11.8140 N.pl3   1  UNL1       -0.2134
     20 H          65.0109   84.5410   11.6557 H       1  UNL1        0.1738
     21 S          63.0495   85.2041   11.0163 S.O2    1  UNL1        0.0736
     22 O          63.4909   84.4983    9.7685 O.2     1  UNL1       -0.1499
     23 O          62.6080   85.9100   12.2640 O.2     1  UNL1       -0.1499
     24 C          62.0518   85.9904   10.2185 C.ar    1  UNL1        0.1252
     25 C          61.5985   85.4878    8.8799 C.ar    1  UNL1        0.0210
     26 C          60.6008   86.2741    8.0821 C.ar    1  UNL1        0.0127
     27 C          60.0565   87.5631    8.6229 C.ar    1  UNL1        0.0616
     28 CL         59.0589   88.3493    7.8251 Cl      1  UNL1       -0.0823
     29 C          60.5099   88.0657    9.9615 C.ar    1  UNL1        0.0833
     30 C          61.5075   87.2794   10.7593 C.ar    1  UNL1        0.0249
     31 C          59.9657   89.3546   10.5023 C.3     1  UNL1        0.4194
     32 F          59.4214   90.6434   11.0432 F       1  UNL1       -0.1658
     33 F          60.8310   90.1211    9.5465 F       1  UNL1       -0.1658
     34 F          59.1003   88.5880   11.4582 F       1  UNL1       -0.1658
@<TRIPOS>BOND
     1     1     2    1
     2     2     3   ar
     3     3     4   ar
     4     4     5   ar
     5     5     8    1
     6     8     9    2
     7     8    10    1
     8    10    11    2
     9    11    12    1
    10    12    13    2
    11    13    14    1
    12    14    15    2
    13    15    16    1
    14    16    17    2
    15    17    18    1
    16     5     6   ar
    17     6    19    1
    18    19    21    1
    19    21    22    2
    20    21    23    2
    21    21    24    1
    22    24    25   ar
    23    25    26   ar
    24    26    27   ar
    25    27    28    1
    26    27    29   ar
    27    29    31    1
    28    31    32    1
    29    31    33    1
    30    31    34    1
    31    29    30   ar
    32     6     7   ar
    33     7     2   ar
    34    18    10    1
    35    30    24   ar
    36    18    14    1
    37    19    20    1
@<TRIPOS>MOLECULE
*****
 34 37 0 0 0
SMALL
GASTEIGER

@<TRIPOS>ATOM
      1 C          62.6485   87.0564   18.6937 C.3     1  UNL1        0.0327
      2 C          63.0274   87.7455   17.4163 C.ar    1  UNL1       -0.0014
      3 C          63.0514   89.2438   17.3509 C.ar    1  UNL1        0.0947
      4 N          63.4302   89.9328   16.0734 N.ar    1  UNL1       -0.2396
      5 C          63.7851   89.1234   14.8615 C.ar    1  UNL1        0.1358
      6 C          63.7612   87.6250   14.9268 C.ar    1  UNL1        0.0853
      7 C          63.3823   86.9360   16.2042 C.ar    1  UNL1        0.0148
      8 C          64.1640   89.8124   13.5841 C.2     1  UNL1        0.2287
      9 O          63.5068   89.4167   12.2950 O.2     1  UNL1       -0.2836
     10 C          65.1999   90.8972   13.5957 C.2     1  UNL1        0.1190
     11 N          66.1285   91.0349   14.7656 N.2     1  UNL1       -0.1997
     12 C          67.1645   92.1196   14.7772 C.2     1  UNL1        0.3387
     13 N          67.2719   93.0666   13.6189 N.2     1  UNL1       -0.0120
     14 C          66.3433   92.9289   12.4490 C.2     1  UNL1        0.3629
     15 N          66.2126   93.7084   11.1742 N.2     1  UNL1       -0.0342
     16 C          65.0958   93.1055   10.3747 C.2     1  UNL1        0.2321
     17 C          64.5363   91.9533   11.1554 C.2     1  UNL1        0.0425
     18 C          65.3073   91.8441   12.4374 C.3     1  UNL1        0.1810
     19 N          64.1160   86.8156   13.7148 N.pl3   1  UNL1       -0.2134
     20 H          64.6369   87.2235   12.9858 H       1  UNL1        0.1738
     21 S          63.6773   85.3849   13.6136 S.O2    1  UNL1        0.0736
     22 O          62.4910   85.8063   12.7979 O.2     1  UNL1       -0.1499
     23 O          64.8635   84.9634   14.4293 O.2     1  UNL1       -0.1499
     24 C          63.2385   83.9541   13.5124 C.ar    1  UNL1        0.1252
     25 C          62.6214   83.2732   14.6980 C.ar    1  UNL1        0.0210
     26 C          62.1826   81.8423   14.5967 C.ar    1  UNL1        0.0127
     27 C          62.3609   81.0924   13.3099 C.ar    1  UNL1        0.0616
     28 CL         61.9221   79.6616   13.2087 Cl      1  UNL1       -0.0823
     29 C          62.9780   81.7733   12.1244 C.ar    1  UNL1        0.0833
     30 C          63.4168   83.2041   12.2256 C.ar    1  UNL1        0.0249
     31 C          63.1563   81.0235   10.8376 C.3     1  UNL1        0.4194
     32 F          63.3347   80.2737    9.5507 F       1  UNL1       -0.1658
     33 F          62.7658   79.7492   11.5259 F       1  UNL1       -0.1658
     34 F          63.5468   82.2978   10.1492 F       1  UNL1       -0.1658
@<TRIPOS>BOND
     1     1     2    1
     2     2     3   ar
     3     3     4   ar
     4     4     5   ar
     5     5     8    1
     6     8     9    2
     7     8    10    1
     8    10    11    2
     9    11    12    1
    10    12    13    2
    11    13    14    1
    12    14    15    2
    13    15    16    1
    14    16    17    2
    15    17    18    1
    16     5     6   ar
    17     6    19    1
    18    19    21    1
    19    21    22    2
    20    21    23    2
    21    21    24    1
    22    24    25   ar
    23    25    26   ar
    24    26    27   ar
    25    27    28    1
    26    27    29   ar
    27    29    31    1
    28    31    32    1
    29    31    33    1
    30    31    34    1
    31    29    30   ar
    32     6     7   ar
    33     7     2   ar
    34    18    10    1
    35    30    24   ar
    36    18    14    1
    37    19    20    1
@<TRIPOS>MOLECULE
*****
 34 37 0 0 0
SMALL
GASTEIGER

@<TRIPOS>ATOM
      1 C          66.5650   93.5205   11.3014 C.3     1  UNL1        0.0327
      2 C          65.4119   92.5841   11.5106 C.ar    1  UNL1       -0.0014
      3 C          64.6675   92.0354   10.3296 C.ar    1  UNL1        0.0947
      4 N          63.5144   91.0991   10.5388 N.ar    1  UNL1       -0.2396
      5 C          63.1058   90.7116   11.9290 C.ar    1  UNL1        0.1358
      6 C          63.8501   91.2603   13.1101 C.ar    1  UNL1        0.0853
      7 C          65.0032   92.1965   12.9009 C.ar    1  UNL1        0.0148
      8 C          61.9527   89.7753   12.1383 C.2     1  UNL1        0.2287
      9 O          60.8961   90.1014   13.1519 O.2     1  UNL1       -0.2836
     10 C          61.8562   88.5128   11.3340 C.2     1  UNL1        0.1190
     11 N          62.5430   87.2667   11.8087 N.2     1  UNL1       -0.1997
     12 C          62.4465   86.0043   11.0045 C.2     1  UNL1        0.3387
     13 N          61.6631   85.9879    9.7253 N.2     1  UNL1       -0.0120
     14 C          60.9763   87.2340    9.2506 C.2     1  UNL1        0.3629
     15 N          60.1392   87.5191    8.0390 N.2     1  UNL1       -0.0342
     16 C          59.7184   88.9578    8.0945 C.2     1  UNL1        0.2321
     17 C          60.2953   89.5619    9.3404 C.2     1  UNL1        0.0425
     18 C          61.0728   88.4965   10.0549 C.3     1  UNL1        0.1810
     19 N          63.4415   90.8727   14.5004 N.pl3   1  UNL1       -0.2134
     20 H          63.1384   91.5621   15.1346 H       1  UNL1        0.1738
     21 S          63.4945   89.4349   14.9244 S.O2    1  UNL1        0.0736
     22 O          62.2988   89.6502   15.8041 O.2     1  UNL1       -0.1499
     23 O          64.6902   89.2196   14.0446 O.2     1  UNL1       -0.1499
     24 C          63.5475   87.9971   15.3484 C.ar    1  UNL1        0.1252
     25 C          63.0778   87.6009   16.7167 C.ar    1  UNL1        0.0210
     26 C          63.1308   86.1630   17.1407 C.ar    1  UNL1        0.0127
     27 C          63.6536   85.1214   16.1964 C.ar    1  UNL1        0.0616
     28 CL         63.7067   83.6835   16.6204 Cl      1  UNL1       -0.0823
     29 C          64.1234   85.5176   14.8281 C.ar    1  UNL1        0.0833
     30 C          64.0704   86.9554   14.4040 C.ar    1  UNL1        0.0249
     31 C          64.6462   84.4760   13.8837 C.3     1  UNL1        0.4194
     32 F          65.1691   83.4345   12.9394 F       1  UNL1       -0.1658
     33 F          63.2435   84.1575   13.4583 F       1  UNL1       -0.1658
     34 F          66.0490   84.7946   14.3091 F       1  UNL1       -0.1658
@<TRIPOS>BOND
     1     1     2    1
     2     2     3   ar
     3     3     4   ar
     4     4     5   ar
     5     5     8    1
     6     8     9    2
     7     8    10    1
     8    10    11    2
     9    11    12    1
    10    12    13    2
    11    13    14    1
    12    14    15    2
    13    15    16    1
    14    16    17    2
    15    17    18    1
    16     5     6   ar
    17     6    19    1
    18    19    21    1
    19    21    22    2
    20    21    23    2
    21    21    24    1
    22    24    25   ar
    23    25    26   ar
    24    26    27   ar
    25    27    28    1
    26    27    29   ar
    27    29    31    1
    28    31    32    1
    29    31    33    1
    30    31    34    1
    31    29    30   ar
    32     6     7   ar
    33     7     2   ar
    34    18    10    1
    35    30    24   ar
    36    18    14    1
    37    19    20    1
@<TRIPOS>MOLECULE
*****
 34 37 0 0 0
SMALL
GASTEIGER

@<TRIPOS>ATOM
      1 C          63.5177   89.7777   16.2076 C.3     1  UNL1        0.0327
      2 C          64.1852   90.7953   15.3305 C.ar    1  UNL1       -0.0014
      3 C          65.1218   91.8024   15.9291 C.ar    1  UNL1        0.0947
      4 N          65.7894   92.8199   15.0521 N.ar    1  UNL1       -0.2396
      5 C          65.5201   92.8303   13.5765 C.ar    1  UNL1        0.1358
      6 C          64.5834   91.8231   12.9778 C.ar    1  UNL1        0.0853
      7 C          63.9160   90.8056   13.8549 C.ar    1  UNL1        0.0148
      8 C          66.1876   93.8477   12.6995 C.2     1  UNL1        0.2287
      9 O          66.1455   95.3007   13.0702 O.2     1  UNL1       -0.2836
     10 C          66.8972   93.4124   11.4517 C.2     1  UNL1        0.1190
     11 N          67.6508   92.1156   11.4311 N.2     1  UNL1       -0.1997
     12 C          68.3604   91.6802   10.1834 C.2     1  UNL1        0.3387
     13 N          68.3165   92.5417    8.9562 N.2     1  UNL1       -0.0120
     14 C          67.5629   93.8385    8.9768 C.2     1  UNL1        0.3629
     15 N          67.3444   94.8890    7.9286 N.2     1  UNL1       -0.0342
     16 C          66.4997   95.9737    8.5287 C.2     1  UNL1        0.2321
     17 C          66.1962   95.5935    9.9476 C.2     1  UNL1        0.0425
     18 C          66.8533   94.2739   10.2245 C.3     1  UNL1        0.1810
     19 N          64.3142   91.8334   11.5022 N.pl3   1  UNL1       -0.2134
     20 H          64.7528   92.5009   10.9265 H       1  UNL1        0.1738
     21 S          63.3769   90.8270   10.9038 S.O2    1  UNL1        0.0736
     22 O          63.0867   91.7692    9.7733 O.2     1  UNL1       -0.1499
     23 O          63.6670   89.8846   12.0342 O.2     1  UNL1       -0.1499
     24 C          62.4395   89.8204   10.3053 C.ar    1  UNL1        0.1252
     25 C          61.1243   90.2652    9.7375 C.ar    1  UNL1        0.0210
     26 C          60.1870   89.2586    9.1390 C.ar    1  UNL1        0.0127
     27 C          60.5648   87.8072    9.1084 C.ar    1  UNL1        0.0616
     28 CL         59.6274   86.8007    8.5099 Cl      1  UNL1       -0.0823
     29 C          61.8799   87.3625    9.6762 C.ar    1  UNL1        0.0833
     30 C          62.8173   88.3690   10.2747 C.ar    1  UNL1        0.0249
     31 C          62.2578   85.9112    9.6456 C.3     1  UNL1        0.4194
     32 F          62.6356   84.4599    9.6151 F       1  UNL1       -0.1658
     33 F          63.0370   86.1406    8.3846 F       1  UNL1       -0.1658
     34 F          61.4785   85.6818   10.9067 F       1  UNL1       -0.1658
@<TRIPOS>BOND
     1     1     2    1
     2     2     3   ar
     3     3     4   ar
     4     4     5   ar
     5     5     8    1
     6     8     9    2
     7     8    10    1
     8    10    11    2
     9    11    12    1
    10    12    13    2
    11    13    14    1
    12    14    15    2
    13    15    16    1
    14    16    17    2
    15    17    18    1
    16     5     6   ar
    17     6    19    1
    18    19    21    1
    19    21    22    2
    20    21    23    2
    21    21    24    1
    22    24    25   ar
    23    25    26   ar
    24    26    27   ar
    25    27    28    1
    26    27    29   ar
    27    29    31    1
    28    31    32    1
    29    31    33    1
    30    31    34    1
    31    29    30   ar
    32     6     7   ar
    33     7     2   ar
    34    18    10    1
    35    30    24   ar
    36    18    14    1
    37    19    20    1
