@<TRIPOS>MOLECULE
*****
 27 29 0 0 0
SMALL
GASTEIGER

@<TRIPOS>ATOM
      1 C          64.0079   87.8438   15.1319 C.ar    1  UNL1        0.0192
      2 C          63.3777   88.3207   16.4068 C.ar    1  UNL1        0.0015
      3 C          63.2437   89.7908   16.6730 C.ar    1  UNL1        0.0000
      4 C          63.7399   90.7840   15.6643 C.ar    1  UNL1       -0.0000
      5 C          64.3701   90.3071   14.3894 C.ar    1  UNL1        0.0000
      6 C          64.5041   88.8370   14.1232 C.ar    1  UNL1        0.0015
      7 C          63.6178   84.0751   14.2893 C.ar    1  UNL1        0.1947
      8 N          63.0390   85.4507   14.4396 N.ar    1  UNL1       -0.2228
      9 C          64.1420   86.3737   14.8656 C.ar    1  UNL1        0.1000
     10 C          65.4025   85.5685   14.9787 C.ar    1  UNL1        0.0930
     11 N          65.0785   84.1479   14.6225 N.ar    1  UNL1       -0.3325
     12 H          65.7132   83.3954   14.6096 H       1  UNL1        0.1676
     13 N          62.3078   81.9224   14.9218 N.am    1  UNL1       -0.3228
     14 C          62.8676   82.8429   13.8781 C.2     1  UNL1        0.2769
     15 O          62.6772   82.5314   12.4232 O.2     1  UNL1       -0.2671
     16 H          61.8154   81.1137   14.6519 H       1  UNL1        0.1453
     17 H          62.4327   82.1269   15.8767 H       1  UNL1        0.1453
     18 C          64.8663   91.3002   13.3807 C.ar    1  UNL1        0.0039
     19 C          64.2204   91.3833   12.0295 C.ar    1  UNL1       -0.0001
     20 C          64.7165   92.3765   11.0208 C.ar    1  UNL1       -0.0000
     21 C          65.8586   93.2865   11.3634 C.ar    1  UNL1       -0.0001
     22 C          66.5045   93.2035   12.7146 C.ar    1  UNL1        0.0039
     23 C          66.0083   92.2103   13.7233 C.ar    1  UNL1        0.0714
     24 C          66.6543   92.1273   15.0746 C.3     1  UNL1        0.4186
     25 F          67.3002   92.0443   16.4258 F       1  UNL1       -0.1659
     26 F          67.5031   90.9858   14.5987 F       1  UNL1       -0.1659
     27 F          65.8054   93.2687   15.5505 F       1  UNL1       -0.1659
@<TRIPOS>BOND
     1    13    14   am
     2    14    15    2
     3    14     7    1
     4     7     8   ar
     5     8     9   ar
     6     9     1    1
     7     1     2   ar
     8     2     3   ar
     9     3     4   ar
    10     4     5   ar
    11     5    18    1
    12    18    19   ar
    13    19    20   ar
    14    20    21   ar
    15    21    22   ar
    16    22    23   ar
    17    23    24    1
    18    24    25    1
    19    24    26    1
    20    24    27    1
    21     5     6   ar
    22     9    10   ar
    23    10    11   ar
    24    11     7   ar
    25     6     1   ar
    26    23    18   ar
    27    13    16    1
    28    13    17    1
    29    11    12    1
@<TRIPOS>MOLECULE
*****
 27 29 0 0 0
SMALL
GASTEIGER

@<TRIPOS>ATOM
      1 C          62.5662   86.9632   11.9137 C.ar    1  UNL1        0.0192
      2 C          63.4771   87.6124   12.9131 C.ar    1  UNL1        0.0015
      3 C          64.1358   86.7843   13.9763 C.ar    1  UNL1        0.0000
      4 C          63.8835   85.3070   14.0401 C.ar    1  UNL1       -0.0000
      5 C          62.9726   84.6579   13.0407 C.ar    1  UNL1        0.0000
      6 C          62.3140   85.4860   11.9775 C.ar    1  UNL1        0.0015
      7 C          60.5169   88.4619    8.9777 C.ar    1  UNL1        0.1947
      8 N          60.9104   87.3013    9.8427 N.ar    1  UNL1       -0.2228
      9 C          61.9075   87.7914   10.8505 C.ar    1  UNL1        0.1000
     10 C          62.1303   89.2548   10.6084 C.ar    1  UNL1        0.0930
     11 N          61.2709   89.6693    9.4510 N.ar    1  UNL1       -0.3325
     12 H          61.2120   90.5748    9.0690 H       1  UNL1        0.1676
     13 N          59.5041   89.5433    6.8435 N.am    1  UNL1       -0.3228
     14 C          59.5409   88.4222    7.8394 C.2     1  UNL1        0.2769
     15 O          58.6016   87.2614    7.6971 O.2     1  UNL1       -0.2671
     16 H          58.8635   89.5172    6.0964 H       1  UNL1        0.1453
     17 H          60.1206   90.3051    6.9370 H       1  UNL1        0.1453
     18 C          62.7204   83.1806   13.1045 C.ar    1  UNL1        0.0039
     19 C          61.9326   82.6027   14.2426 C.ar    1  UNL1       -0.0001
     20 C          61.6803   81.1255   14.3064 C.ar    1  UNL1       -0.0000
     21 C          62.2158   80.2261   13.2321 C.ar    1  UNL1       -0.0001
     22 C          63.0036   80.8040   12.0939 C.ar    1  UNL1        0.0039
     23 C          63.2559   82.2812   12.0301 C.ar    1  UNL1        0.0714
     24 C          64.0437   82.8591   10.8919 C.3     1  UNL1        0.4186
     25 F          64.8314   83.4369    9.7537 F       1  UNL1       -0.1659
     26 F          65.1480   83.2215   11.8401 F       1  UNL1       -0.1659
     27 F          62.9394   82.4968    9.9437 F       1  UNL1       -0.1659
@<TRIPOS>BOND
     1    13    14   am
     2    14    15    2
     3    14     7    1
     4     7     8   ar
     5     8     9   ar
     6     9     1    1
     7     1     2   ar
     8     2     3   ar
     9     3     4   ar
    10     4     5   ar
    11     5    18    1
    12    18    19   ar
    13    19    20   ar
    14    20    21   ar
    15    21    22   ar
    16    22    23   ar
    17    23    24    1
    18    24    25    1
    19    24    26    1
    20    24    27    1
    21     5     6   ar
    22     9    10   ar
    23    10    11   ar
    24    11     7   ar
    25     6     1   ar
    26    23    18   ar
    27    13    16    1
    28    13    17    1
    29    11    12    1
@<TRIPOS>MOLECULE
*****
 27 29 0 0 0
SMALL
GASTEIGER

@<TRIPOS>ATOM
      1 C          62.0667   86.0456   10.0270 C.ar    1  UNL1        0.0192
      2 C          62.8446   85.8333    8.7622 C.ar    1  UNL1        0.0015
      3 C          63.6585   84.5862    8.5828 C.ar    1  UNL1        0.0000
      4 C          63.6944   83.5514    9.6681 C.ar    1  UNL1       -0.0000
      5 C          62.9164   83.7637   10.9329 C.ar    1  UNL1        0.0000
      6 C          62.1025   85.0108   11.1123 C.ar    1  UNL1        0.0015
      7 C          59.8424   89.0076   11.1869 C.ar    1  UNL1        0.1947
      8 N          60.5189   87.6952   11.4513 N.ar    1  UNL1       -0.2228
      9 C          61.2527   87.2928   10.2065 C.ar    1  UNL1        0.1000
     10 C          61.0297   88.3565    9.1727 C.ar    1  UNL1        0.0930
     11 N          60.1581   89.4163    9.7786 N.ar    1  UNL1       -0.3325
     12 H          59.8478   90.2362    9.3306 H       1  UNL1        0.1676
     13 N          58.6474   91.2077   11.8808 N.am    1  UNL1       -0.3228
     14 C          58.9984   89.7763   12.1599 C.2     1  UNL1        0.2769
     15 O          58.5055   89.1136   13.4121 O.2     1  UNL1       -0.2671
     16 H          58.0934   91.7122   12.5194 H       1  UNL1        0.1453
     17 H          58.9709   91.6426   11.0589 H       1  UNL1        0.1453
     18 C          62.9523   82.7289   12.0182 C.ar    1  UNL1        0.0039
     19 C          62.5818   81.3080   11.7122 C.ar    1  UNL1       -0.0001
     20 C          62.6177   80.2732   12.7975 C.ar    1  UNL1       -0.0000
     21 C          63.0241   80.6593   14.1888 C.ar    1  UNL1       -0.0001
     22 C          63.3946   82.0802   14.4947 C.ar    1  UNL1        0.0039
     23 C          63.3587   83.1150   13.4094 C.ar    1  UNL1        0.0714
     24 C          63.7293   84.5360   13.7155 C.3     1  UNL1        0.4186
     25 F          64.0998   85.9569   14.0215 F       1  UNL1       -0.1659
     26 F          65.1024   84.2974   13.1608 F       1  UNL1       -0.1659
     27 F          62.3562   84.7746   14.2701 F       1  UNL1       -0.1659
@<TRIPOS>BOND
     1    13    14   am
     2    14    15    2
     3    14     7    1
     4     7     8   ar
     5     8     9   ar
     6     9     1    1
     7     1     2   ar
     8     2     3   ar
     9     3     4   ar
    10     4     5   ar
    11     5    18    1
    12    18    19   ar
    13    19    20   ar
    14    20    21   ar
    15    21    22   ar
    16    22    23   ar
    17    23    24    1
    18    24    25    1
    19    24    26    1
    20    24    27    1
    21     5     6   ar
    22     9    10   ar
    23    10    11   ar
    24    11     7   ar
    25     6     1   ar
    26    23    18   ar
    27    13    16    1
    28    13    17    1
    29    11    12    1
@<TRIPOS>MOLECULE
*****
 27 29 0 0 0
SMALL
GASTEIGER

@<TRIPOS>ATOM
      1 C          62.5232   87.4632   11.7078 C.ar    1  UNL1        0.0192
      2 C          63.3756   88.1531   12.7313 C.ar    1  UNL1        0.0015
      3 C          64.1114   87.3475   13.7605 C.ar    1  UNL1        0.0000
      4 C          63.9949   85.8520   13.7663 C.ar    1  UNL1       -0.0000
      5 C          63.1425   85.1622   12.7428 C.ar    1  UNL1        0.0000
      6 C          62.4067   85.9678   11.7136 C.ar    1  UNL1        0.0015
      7 C          60.3920   88.8765    8.7877 C.ar    1  UNL1        0.1947
      8 N          60.9294   87.7198    9.5772 N.ar    1  UNL1       -0.2228
      9 C          61.7873   88.2689   10.6784 C.ar    1  UNL1        0.1000
     10 C          61.7801   89.7649   10.5695 C.ar    1  UNL1        0.0930
     11 N          60.9178   90.1405    9.4011 N.ar    1  UNL1       -0.3325
     12 H          60.7299   91.0558    9.0911 H       1  UNL1        0.1676
     13 N          59.5191   89.8575    6.5459 N.am    1  UNL1       -0.3228
     14 C          59.4877   88.7853    7.5945 C.2     1  UNL1        0.2769
     15 O          58.5519   87.6220    7.4499 O.2     1  UNL1       -0.2671
     16 H          58.9256   89.7976    5.7628 H       1  UNL1        0.1453
     17 H          60.1333   90.6210    6.6409 H       1  UNL1        0.1453
     18 C          63.0260   83.6667   12.7486 C.ar    1  UNL1        0.0039
     19 C          63.1548   82.8994   11.4662 C.ar    1  UNL1       -0.0001
     20 C          63.0383   81.4040   11.4720 C.ar    1  UNL1       -0.0000
     21 C          62.7930   80.6758   12.7602 C.ar    1  UNL1       -0.0001
     22 C          62.6642   81.4431   14.0427 C.ar    1  UNL1        0.0039
     23 C          62.7807   82.9385   14.0369 C.ar    1  UNL1        0.0714
     24 C          62.6519   83.7058   15.3194 C.3     1  UNL1        0.4186
     25 F          62.5232   84.4730   16.6018 F       1  UNL1       -0.1659
     26 F          61.2801   84.1558   14.9125 F       1  UNL1       -0.1659
     27 F          64.0238   83.2559   15.7263 F       1  UNL1       -0.1659
@<TRIPOS>BOND
     1    13    14   am
     2    14    15    2
     3    14     7    1
     4     7     8   ar
     5     8     9   ar
     6     9     1    1
     7     1     2   ar
     8     2     3   ar
     9     3     4   ar
    10     4     5   ar
    11     5    18    1
    12    18    19   ar
    13    19    20   ar
    14    20    21   ar
    15    21    22   ar
    16    22    23   ar
    17    23    24    1
    18    24    25    1
    19    24    26    1
    20    24    27    1
    21     5     6   ar
    22     9    10   ar
    23    10    11   ar
    24    11     7   ar
    25     6     1   ar
    26    23    18   ar
    27    13    16    1
    28    13    17    1
    29    11    12    1
@<TRIPOS>MOLECULE
*****
 27 29 0 0 0
SMALL
GASTEIGER

@<TRIPOS>ATOM
      1 C          63.3306   84.8130   12.0277 C.ar    1  UNL1        0.0192
      2 C          64.1063   83.7855   11.2579 C.ar    1  UNL1        0.0015
      3 C          63.9152   83.6568    9.7758 C.ar    1  UNL1        0.0000
      4 C          62.9483   84.5556    9.0634 C.ar    1  UNL1       -0.0000
      5 C          62.1727   85.5831    9.8332 C.ar    1  UNL1        0.0000
      6 C          62.3638   85.7118   11.3153 C.ar    1  UNL1        0.0015
      7 C          63.4033   85.7663   15.7896 C.ar    1  UNL1        0.1947
      8 N          62.9667   86.0310   14.3792 N.ar    1  UNL1       -0.2228
      9 C          63.5217   84.9417   13.5100 C.ar    1  UNL1        0.1000
     10 C          64.3014   84.0039   14.3832 C.ar    1  UNL1        0.0930
     11 N          64.2282   84.5135   15.7921 N.ar    1  UNL1       -0.3325
     12 H          64.6479   84.0985   16.5800 H       1  UNL1        0.1676
     13 N          63.1538   88.1022   16.8994 N.am    1  UNL1       -0.3228
     14 C          63.0730   86.6069   16.9872 C.2     1  UNL1        0.2769
     15 O          62.6620   85.9522   18.2727 O.2     1  UNL1       -0.2671
     16 H          62.9370   88.6538   17.6855 H       1  UNL1        0.1453
     17 H          63.4236   88.5319   16.0557 H       1  UNL1        0.1453
     18 C          61.2059   86.4818    9.1208 C.ar    1  UNL1        0.0039
     19 C          60.2927   85.9198    8.0719 C.ar    1  UNL1       -0.0001
     20 C          59.3259   86.8186    7.3595 C.ar    1  UNL1       -0.0000
     21 C          59.2722   88.2793    7.6960 C.ar    1  UNL1       -0.0001
     22 C          60.1854   88.8413    8.7449 C.ar    1  UNL1        0.0039
     23 C          61.1522   87.9426    9.4573 C.ar    1  UNL1        0.0714
     24 C          62.0654   88.5046   10.5062 C.3     1  UNL1        0.4186
     25 F          62.9786   89.0667   11.5551 F       1  UNL1       -0.1659
     26 F          60.9532   88.4376   11.5104 F       1  UNL1       -0.1659
     27 F          63.1776   88.5717    9.5020 F       1  UNL1       -0.1659
@<TRIPOS>BOND
     1    13    14   am
     2    14    15    2
     3    14     7    1
     4     7     8   ar
     5     8     9   ar
     6     9     1    1
     7     1     2   ar
     8     2     3   ar
     9     3     4   ar
    10     4     5   ar
    11     5    18    1
    12    18    19   ar
    13    19    20   ar
    14    20    21   ar
    15    21    22   ar
    16    22    23   ar
    17    23    24    1
    18    24    25    1
    19    24    26    1
    20    24    27    1
    21     5     6   ar
    22     9    10   ar
    23    10    11   ar
    24    11     7   ar
    25     6     1   ar
    26    23    18   ar
    27    13    16    1
    28    13    17    1
    29    11    12    1
@<TRIPOS>MOLECULE
*****
 27 29 0 0 0
SMALL
GASTEIGER

@<TRIPOS>ATOM
      1 C          62.7455   87.5711   11.6728 C.ar    1  UNL1        0.0192
      2 C          62.2791   87.5440   10.2475 C.ar    1  UNL1        0.0015
      3 C          61.9555   86.2356    9.5891 C.ar    1  UNL1        0.0000
      4 C          62.0983   84.9545   10.3561 C.ar    1  UNL1       -0.0000
      5 C          62.5647   84.9816   11.7814 C.ar    1  UNL1        0.0000
      6 C          62.8883   86.2900   12.4398 C.ar    1  UNL1        0.0015
      7 C          63.7004   90.5350   13.9901 C.ar    1  UNL1        0.1947
      8 N          63.4750   89.0695   13.7628 N.ar    1  UNL1       -0.2228
      9 C          63.0691   88.8795   12.3313 C.ar    1  UNL1        0.1000
     10 C          63.0436   90.2275   11.6739 C.ar    1  UNL1        0.0930
     11 N          63.4337   91.2507   12.6990 N.ar    1  UNL1       -0.3325
     12 H          63.5027   92.2215   12.5506 H       1  UNL1        0.1676
     13 N          63.4236   90.8059   16.5592 N.am    1  UNL1       -0.3228
     14 C          64.1189   91.1728   15.2816 C.2     1  UNL1        0.2769
     15 O          65.2327   92.1774   15.2956 O.2     1  UNL1       -0.2671
     16 H          63.6983   91.2245   17.4068 H       1  UNL1        0.1453
     17 H          62.6926   90.1465   16.5499 H       1  UNL1        0.1453
     18 C          62.7076   83.7005   12.5484 C.ar    1  UNL1        0.0039
     19 C          62.0745   83.5616   13.9011 C.ar    1  UNL1       -0.0001
     20 C          62.2173   82.2805   14.6681 C.ar    1  UNL1       -0.0000
     21 C          62.9933   81.1382   14.0824 C.ar    1  UNL1       -0.0001
     22 C          63.6263   81.2771   12.7296 C.ar    1  UNL1        0.0039
     23 C          63.4835   82.5582   11.9627 C.ar    1  UNL1        0.0714
     24 C          64.1167   82.6971   10.6099 C.3     1  UNL1        0.4186
     25 F          64.7497   82.8359    9.2572 F       1  UNL1       -0.1659
     26 F          65.1135   83.6645   11.1757 F       1  UNL1       -0.1659
     27 F          63.1198   81.7296   10.0441 F       1  UNL1       -0.1659
@<TRIPOS>BOND
     1    13    14   am
     2    14    15    2
     3    14     7    1
     4     7     8   ar
     5     8     9   ar
     6     9     1    1
     7     1     2   ar
     8     2     3   ar
     9     3     4   ar
    10     4     5   ar
    11     5    18    1
    12    18    19   ar
    13    19    20   ar
    14    20    21   ar
    15    21    22   ar
    16    22    23   ar
    17    23    24    1
    18    24    25    1
    19    24    26    1
    20    24    27    1
    21     5     6   ar
    22     9    10   ar
    23    10    11   ar
    24    11     7   ar
    25     6     1   ar
    26    23    18   ar
    27    13    16    1
    28    13    17    1
    29    11    12    1
@<TRIPOS>MOLECULE
*****
 27 29 0 0 0
SMALL
GASTEIGER

@<TRIPOS>ATOM
      1 C          62.1867   87.0757   11.7128 C.ar    1  UNL1        0.0192
      2 C          60.8688   87.5168   11.1484 C.ar    1  UNL1        0.0015
      3 C          60.5624   88.9789   11.0135 C.ar    1  UNL1        0.0000
      4 C          61.5738   90.0000   11.4429 C.ar    1  UNL1       -0.0000
      5 C          62.8917   89.5589   12.0072 C.ar    1  UNL1        0.0000
      6 C          63.1982   88.0968   12.1422 C.ar    1  UNL1        0.0015
      7 C          62.9010   83.4190   12.8008 C.ar    1  UNL1        0.1947
      8 N          62.5701   84.8438   13.1329 N.ar    1  UNL1       -0.2228
      9 C          62.4932   85.6136   11.8477 C.ar    1  UNL1        0.1000
     10 C          62.7765   84.6644   10.7213 C.ar    1  UNL1        0.0930
     11 N          63.0286   83.3081   11.3103 N.ar    1  UNL1       -0.3325
     12 H          63.2405   82.4890   10.8070 H       1  UNL1        0.1676
     13 N          62.6367   82.4819   15.2095 N.am    1  UNL1       -0.3228
     14 C          63.0740   82.3013   13.7860 C.2     1  UNL1        0.2769
     15 O          63.6842   81.0030   13.3478 O.2     1  UNL1       -0.2671
     16 H          62.7502   81.7483   15.8562 H       1  UNL1        0.1453
     17 H          62.2362   83.3340   15.4971 H       1  UNL1        0.1453
     18 C          63.9032   90.5800   12.4367 C.ar    1  UNL1        0.0039
     19 C          64.3832   91.6156   11.4635 C.ar    1  UNL1       -0.0001
     20 C          65.3946   92.6366   11.8929 C.ar    1  UNL1       -0.0000
     21 C          65.9261   92.6221   13.2955 C.ar    1  UNL1       -0.0001
     22 C          65.4461   91.5864   14.2687 C.ar    1  UNL1        0.0039
     23 C          64.4347   90.5654   13.8392 C.ar    1  UNL1        0.0714
     24 C          63.9547   89.5298   14.8125 C.3     1  UNL1        0.4186
     25 F          63.4747   88.4942   15.7857 F       1  UNL1       -0.1659
     26 F          65.1438   88.6746   14.4891 F       1  UNL1       -0.1659
     27 F          62.7656   90.3849   15.1359 F       1  UNL1       -0.1659
@<TRIPOS>BOND
     1    13    14   am
     2    14    15    2
     3    14     7    1
     4     7     8   ar
     5     8     9   ar
     6     9     1    1
     7     1     2   ar
     8     2     3   ar
     9     3     4   ar
    10     4     5   ar
    11     5    18    1
    12    18    19   ar
    13    19    20   ar
    14    20    21   ar
    15    21    22   ar
    16    22    23   ar
    17    23    24    1
    18    24    25    1
    19    24    26    1
    20    24    27    1
    21     5     6   ar
    22     9    10   ar
    23    10    11   ar
    24    11     7   ar
    25     6     1   ar
    26    23    18   ar
    27    13    16    1
    28    13    17    1
    29    11    12    1
@<TRIPOS>MOLECULE
*****
 27 29 0 0 0
SMALL
GASTEIGER

@<TRIPOS>ATOM
      1 C          62.7347   87.5534   11.5261 C.ar    1  UNL1        0.0192
      2 C          62.2615   87.5970   10.1034 C.ar    1  UNL1        0.0015
      3 C          62.0039   86.3204    9.3592 C.ar    1  UNL1        0.0000
      4 C          62.2194   85.0001   10.0378 C.ar    1  UNL1       -0.0000
      5 C          62.6926   84.9565   11.4605 C.ar    1  UNL1        0.0000
      6 C          62.9502   86.2331   12.2047 C.ar    1  UNL1        0.0015
      7 C          63.5778   90.4009   14.0254 C.ar    1  UNL1        0.1947
      8 N          63.4495   88.9435   13.6945 N.ar    1  UNL1       -0.2228
      9 C          62.9924   88.8300   12.2703 C.ar    1  UNL1        0.1000
     10 C          62.8382   90.2173   11.7210 C.ar    1  UNL1        0.0930
     11 N          63.2000   91.1882   12.8057 N.ar    1  UNL1       -0.3325
     12 H          63.1910   92.1697   12.7304 H       1  UNL1        0.1676
     13 N          63.3523   90.5082   16.6114 N.am    1  UNL1       -0.3228
     14 C          64.0083   90.9710   15.3443 C.2     1  UNL1        0.2769
     15 O          65.0949   92.0038   15.3962 O.2     1  UNL1       -0.2671
     16 H          63.6349   90.8824   17.4771 H       1  UNL1        0.1453
     17 H          62.6392   89.8303   16.5774 H       1  UNL1        0.1453
     18 C          62.9081   83.6362   12.1391 C.ar    1  UNL1        0.0039
     19 C          62.6702   82.3595   11.3885 C.ar    1  UNL1       -0.0001
     20 C          62.8857   81.0392   12.0671 C.ar    1  UNL1       -0.0000
     21 C          63.3391   80.9957   13.4963 C.ar    1  UNL1       -0.0001
     22 C          63.5770   82.2724   14.2468 C.ar    1  UNL1        0.0039
     23 C          63.3615   83.5927   13.5682 C.ar    1  UNL1        0.0714
     24 C          63.5993   84.8694   14.3189 C.3     1  UNL1        0.4186
     25 F          63.8373   86.1461   15.0695 F       1  UNL1       -0.1659
     26 F          62.1760   84.8565   14.7920 F       1  UNL1       -0.1659
     27 F          65.0227   84.8823   13.8458 F       1  UNL1       -0.1659
@<TRIPOS>BOND
     1    13    14   am
     2    14    15    2
     3    14     7    1
     4     7     8   ar
     5     8     9   ar
     6     9     1    1
     7     1     2   ar
     8     2     3   ar
     9     3     4   ar
    10     4     5   ar
    11     5    18    1
    12    18    19   ar
    13    19    20   ar
    14    20    21   ar
    15    21    22   ar
    16    22    23   ar
    17    23    24    1
    18    24    25    1
    19    24    26    1
    20    24    27    1
    21     5     6   ar
    22     9    10   ar
    23    10    11   ar
    24    11     7   ar
    25     6     1   ar
    26    23    18   ar
    27    13    16    1
    28    13    17    1
    29    11    12    1
@<TRIPOS>MOLECULE
*****
 27 29 0 0 0
SMALL
GASTEIGER

@<TRIPOS>ATOM
      1 C          61.4441   87.2366   10.2702 C.ar    1  UNL1        0.0192
      2 C          62.1027   88.3399   11.0440 C.ar    1  UNL1        0.0015
      3 C          63.0035   88.0126   12.1978 C.ar    1  UNL1        0.0000
      4 C          63.2458   86.5819   12.5777 C.ar    1  UNL1       -0.0000
      5 C          62.5872   85.4785   11.8039 C.ar    1  UNL1        0.0000
      6 C          61.6864   85.8059   10.6501 C.ar    1  UNL1        0.0015
      7 C          59.4781   88.7428    7.2815 C.ar    1  UNL1        0.1947
      8 N          60.5334   88.8487    8.3422 N.ar    1  UNL1       -0.2228
      9 C          60.5432   87.5639    9.1163 C.ar    1  UNL1        0.1000
     10 C          59.4940   86.6639    8.5339 C.ar    1  UNL1        0.0930
     11 N          58.8358   87.3924    7.4000 N.ar    1  UNL1       -0.3325
     12 H          58.1096   87.0453    6.8330 H       1  UNL1        0.1676
     13 N          57.6898   90.1534    6.0316 N.am    1  UNL1       -0.3228
     14 C          59.1269   89.8013    6.2784 C.2     1  UNL1        0.2769
     15 O          60.2127   90.5076    5.5221 O.2     1  UNL1       -0.2671
     16 H          57.4593   90.8482    5.3733 H       1  UNL1        0.1453
     17 H          56.9772   89.6898    6.5280 H       1  UNL1        0.1453
     18 C          62.8294   84.0478   12.1839 C.ar    1  UNL1        0.0039
     19 C          62.7504   82.9714   11.1423 C.ar    1  UNL1       -0.0001
     20 C          62.9926   81.5407   11.5223 C.ar    1  UNL1       -0.0000
     21 C          63.3140   81.1864   12.9439 C.ar    1  UNL1       -0.0001
     22 C          63.3930   82.2628   13.9856 C.ar    1  UNL1        0.0039
     23 C          63.1508   83.6935   13.6056 C.ar    1  UNL1        0.0714
     24 C          63.2298   84.7699   14.6474 C.3     1  UNL1        0.4186
     25 F          63.3089   85.8462   15.6891 F       1  UNL1       -0.1659
     26 F          64.7054   84.8933   14.4079 F       1  UNL1       -0.1659
     27 F          61.7543   84.6465   14.8868 F       1  UNL1       -0.1659
@<TRIPOS>BOND
     1    13    14   am
     2    14    15    2
     3    14     7    1
     4     7     8   ar
     5     8     9   ar
     6     9     1    1
     7     1     2   ar
     8     2     3   ar
     9     3     4   ar
    10     4     5   ar
    11     5    18    1
    12    18    19   ar
    13    19    20   ar
    14    20    21   ar
    15    21    22   ar
    16    22    23   ar
    17    23    24    1
    18    24    25    1
    19    24    26    1
    20    24    27    1
    21     5     6   ar
    22     9    10   ar
    23    10    11   ar
    24    11     7   ar
    25     6     1   ar
    26    23    18   ar
    27    13    16    1
    28    13    17    1
    29    11    12    1
