@<TRIPOS>MOLECULE
*****
 42 48 0 0 0
SMALL
GASTEIGER

@<TRIPOS>ATOM
      1 N          59.0895   92.8356    1.7808 N.pl3   1  UNL1       -0.2543
      2 C          58.2305   92.2416    0.7040 C.3     1  UNL1        0.1203
      3 C          58.0143   92.9871   -0.5795 C.3     1  UNL1        0.1216
      4 N          58.6571   94.3265   -0.7864 N.am    1  UNL1       -0.2403
      5 C          58.4409   95.0719   -2.0700 C.2     1  UNL1        0.3078
      6 O          59.0836   96.4114   -2.2768 O.2     1  UNL1       -0.2522
      7 N          57.5819   94.4780   -3.1467 N.am    1  UNL1       -0.2901
      8 C          59.5160   94.9205    0.2904 C.ar    1  UNL1        0.0690
      9 C          60.1587   96.2599    0.0836 C.ar    1  UNL1        0.0162
     10 C          61.0177   96.8539    1.1603 C.ar    1  UNL1        0.0014
     11 C          61.2339   96.1085    2.4439 C.ar    1  UNL1        0.0014
     12 C          60.5912   94.7690    2.6507 C.ar    1  UNL1        0.0162
     13 C          59.7322   94.1751    1.5740 C.ar    1  UNL1        0.0678
     14 H          57.1601   93.5988   -3.0110 H       1  UNL1        0.1509
     15 C          57.3657   95.2234   -4.4303 C.3     1  UNL1        0.0731
     16 C          55.9823   95.3614   -4.9936 C.3     1  UNL1        0.0204
     17 C          57.1495   95.9689   -5.7138 C.3     1  UNL1        0.0018
     18 C          56.9333   96.7143   -6.9974 C.3     1  UNL1        0.0024
     19 C          58.3166   96.5763   -6.4341 C.3     1  UNL1        0.0018
     20 C          58.5328   95.8309   -5.1505 C.3     1  UNL1        0.0204
     21 C          55.8554   96.5159   -6.9311 C.3     1  UNL1        0.0285
     22 C          54.3828   96.2448   -6.8405 C.3     1  UNL1        0.0884
     23 O          52.9995   96.3828   -7.4038 O.3     1  UNL1       -0.3867
     24 C          55.5499   96.8523   -7.5607 C.3     1  UNL1        0.0269
     25 C          54.5990   95.4994   -5.5569 C.3     1  UNL1        0.0285
     26 H          53.0361   96.8888   -8.2306 H       1  UNL1        0.2102
     27 C          59.7381   90.5992    5.6315 C.ar    1  UNL1        0.0869
     28 C          60.8729   90.7763    4.6667 C.ar    1  UNL1        0.1179
     29 N          60.6567   91.5218    3.3832 N.ar    1  UNL1       -0.2105
     30 C          59.3057   92.0901    3.0643 C.ar    1  UNL1        0.2242
     31 N          58.1708   91.9131    4.0291 N.ar    1  UNL1       -0.2105
     32 C          58.3870   91.1676    5.3127 C.ar    1  UNL1        0.1179
     33 N          60.3867   88.3629    9.4822 N.3     1  UNL1       -0.1559
     34 C          60.8080   89.7980    9.3683 C.3     1  UNL1        0.1168
     35 C          60.5918   90.5435    8.0847 C.3     1  UNL1        0.1100
     36 N          59.9543   89.8538    6.9151 N.pl3   1  UNL1       -0.3021
     37 C          59.5330   88.4187    7.0291 C.3     1  UNL1        0.1100
     38 C          59.7492   87.6733    8.3126 C.3     1  UNL1        0.1168
     39 C          60.8191   86.8720   12.0494 C.3     1  UNL1        0.1960
     40 S          60.6029   87.6174   10.7658 S.O2    1  UNL1        0.0458
     41 O          59.8813   88.6982   11.5150 O.2     1  UNL1       -0.1572
     42 O          61.3245   86.5367   10.0166 O.2     1  UNL1       -0.1572
@<TRIPOS>BOND
     1    39    40    1
     2    40    41    2
     3    40    42    2
     4    40    33    1
     5    33    34    1
     6    34    35    1
     7    35    36    1
     8    36    27    1
     9    27    28   ar
    10    28    29   ar
    11    29    30   ar
    12    30     1    1
    13     1     2    1
    14     2     3    1
    15     3     4    1
    16     4     5   am
    17     5     6    2
    18     5     7   am
    19    15     7    1
    20    15    16    1
    21    16    17    1
    22    17    18    1
    23    18    19    1
    24    19    20    1
    25    20    21    1
    26    21    22    1
    27    22    23    1
    28    22    24    1
    29    22    25    1
    30     4     8    1
    31     8     9   ar
    32     9    10   ar
    33    10    11   ar
    34    11    12   ar
    35    12    13   ar
    36    30    31   ar
    37    31    32   ar
    38    36    37    1
    39    37    38    1
    40    38    33    1
    41    32    27   ar
    42    13     1    1
    43    20    15    1
    44    13     8   ar
    45    25    16    1
    46    24    18    1
    47     7    14    1
    48    23    26    1
@<TRIPOS>MOLECULE
*****
 42 48 0 0 0
SMALL
GASTEIGER

@<TRIPOS>ATOM
      1 N          60.9321   90.2595    7.2772 N.pl3   1  UNL1       -0.2543
      2 C          61.9925   90.8249    8.1749 C.3     1  UNL1        0.1203
      3 C          62.3497   90.1202    9.4499 C.3     1  UNL1        0.1216
      4 N          61.6466   88.8501    9.8273 N.am    1  UNL1       -0.2403
      5 C          62.0039   88.1454   11.1023 C.2     1  UNL1        0.3078
      6 O          61.3007   86.8752   11.4797 O.2     1  UNL1       -0.2522
      7 N          63.0643   88.7107   12.0000 N.am    1  UNL1       -0.2901
      8 C          60.5862   88.2846    8.9296 C.ar    1  UNL1        0.0690
      9 C          59.8831   87.0145    9.3069 C.ar    1  UNL1        0.0162
     10 C          58.8227   86.4492    8.4092 C.ar    1  UNL1        0.0014
     11 C          58.4654   87.1539    7.1342 C.ar    1  UNL1        0.0014
     12 C          59.1686   88.4240    6.7568 C.ar    1  UNL1        0.0162
     13 C          60.2289   88.9894    7.6545 C.ar    1  UNL1        0.0678
     14 H          63.5258   89.5444   11.7524 H       1  UNL1        0.1509
     15 C          63.4215   88.0060   13.2751 C.3     1  UNL1        0.0731
     16 C          63.4768   86.5075   13.3137 C.3     1  UNL1        0.0204
     17 C          63.7788   87.3013   14.5501 C.3     1  UNL1        0.0018
     18 C          64.1360   86.5966   15.8252 C.3     1  UNL1        0.0024
     19 C          64.0808   88.0950   15.7865 C.3     1  UNL1        0.0018
     20 C          63.7235   88.7998   14.5115 C.3     1  UNL1        0.0204
     21 C          64.0317   85.6278   15.3189 C.3     1  UNL1        0.0285
     22 C          63.8893   84.3043   14.6274 C.3     1  UNL1        0.0884
     23 O          63.9445   82.8059   14.6660 O.3     1  UNL1       -0.3867
     24 C          64.1913   85.0981   15.8638 C.3     1  UNL1        0.0269
     25 C          63.5320   85.0090   13.3523 C.3     1  UNL1        0.0285
     26 H          64.1885   82.5142   15.5584 H       1  UNL1        0.2102
     27 C          59.8604   92.3737    3.4520 C.ar    1  UNL1        0.0869
     28 C          58.8046   92.1098    4.4843 C.ar    1  UNL1        0.1179
     29 N          59.1619   91.4051    5.7594 N.ar    1  UNL1       -0.2105
     30 C          60.5749   90.9642    6.0021 C.ar    1  UNL1        0.2242
     31 N          61.6307   91.2280    4.9698 N.ar    1  UNL1       -0.2105
     32 C          61.2735   91.9328    3.6947 C.ar    1  UNL1        0.1179
     33 N          58.7886   94.4878   -0.3731 N.3     1  UNL1       -0.1559
     34 C          58.3168   93.0840   -0.1345 C.3     1  UNL1        0.1168
     35 C          58.6741   92.3793    1.1406 C.3     1  UNL1        0.1100
     36 N          59.5031   93.0784    2.1770 N.pl3   1  UNL1       -0.3021
     37 C          59.9748   94.4821    1.9383 C.3     1  UNL1        0.1100
     38 C          59.6176   95.1868    0.6633 C.3     1  UNL1        0.1168
     39 C          58.0741   95.8972   -2.9232 C.3     1  UNL1        0.1960
     40 S          58.4313   95.1925   -1.6482 S.O2    1  UNL1        0.0458
     41 O          56.9909   95.2180   -1.2305 O.2     1  UNL1       -0.1572
     42 O          59.8718   95.1670   -2.0659 O.2     1  UNL1       -0.1572
@<TRIPOS>BOND
     1    39    40    1
     2    40    41    2
     3    40    42    2
     4    40    33    1
     5    33    34    1
     6    34    35    1
     7    35    36    1
     8    36    27    1
     9    27    28   ar
    10    28    29   ar
    11    29    30   ar
    12    30     1    1
    13     1     2    1
    14     2     3    1
    15     3     4    1
    16     4     5   am
    17     5     6    2
    18     5     7   am
    19    15     7    1
    20    15    16    1
    21    16    17    1
    22    17    18    1
    23    18    19    1
    24    19    20    1
    25    20    21    1
    26    21    22    1
    27    22    23    1
    28    22    24    1
    29    22    25    1
    30     4     8    1
    31     8     9   ar
    32     9    10   ar
    33    10    11   ar
    34    11    12   ar
    35    12    13   ar
    36    30    31   ar
    37    31    32   ar
    38    36    37    1
    39    37    38    1
    40    38    33    1
    41    32    27   ar
    42    13     1    1
    43    20    15    1
    44    13     8   ar
    45    25    16    1
    46    24    18    1
    47     7    14    1
    48    23    26    1
@<TRIPOS>MOLECULE
*****
 42 48 0 0 0
SMALL
GASTEIGER

@<TRIPOS>ATOM
      1 N          60.6775   88.8047    7.4085 N.pl3   1  UNL1       -0.2543
      2 C          61.2404   87.4547    7.0758 C.3     1  UNL1        0.1203
      3 C          61.5087   86.4638    8.1694 C.3     1  UNL1        0.1216
      4 N          61.2141   86.8227    9.5957 N.am    1  UNL1       -0.2403
      5 C          61.4825   85.8318   10.6893 C.2     1  UNL1        0.3078
      6 O          61.1878   86.1908   12.1156 O.2     1  UNL1       -0.2522
      7 N          62.0454   84.4818   10.3566 N.am    1  UNL1       -0.2901
      8 C          60.6512   88.1728    9.9284 C.ar    1  UNL1        0.0690
      9 C          60.3566   88.5317   11.3547 C.ar    1  UNL1        0.0162
     10 C          59.7937   89.8817   11.6874 C.ar    1  UNL1        0.0014
     11 C          59.5254   90.8727   10.5938 C.ar    1  UNL1        0.0014
     12 C          59.8199   90.5137    9.1675 C.ar    1  UNL1        0.0162
     13 C          60.3829   89.1637    8.8348 C.ar    1  UNL1        0.0678
     14 H          62.2387   84.2462    9.4205 H       1  UNL1        0.1509
     15 C          62.3137   83.4909   11.4502 C.3     1  UNL1        0.0731
     16 C          62.3565   83.9444   12.8794 C.3     1  UNL1        0.0204
     17 C          62.5820   82.4999   12.5439 C.3     1  UNL1        0.0018
     18 C          62.8504   81.5089   13.6375 C.3     1  UNL1        0.0024
     19 C          62.8076   81.0554   12.2083 C.3     1  UNL1        0.0018
     20 C          62.5392   82.0464   11.1147 C.3     1  UNL1        0.0204
     21 C          62.7731   82.3111   14.3833 C.3     1  UNL1        0.0285
     22 C          62.6676   83.4069   15.4022 C.3     1  UNL1        0.0884
     23 O          62.7104   83.8604   16.8313 O.3     1  UNL1       -0.3867
     24 C          62.8932   81.9625   15.0667 C.3     1  UNL1        0.0269
     25 C          62.3993   84.3979   14.3086 C.3     1  UNL1        0.0285
     26 H          62.8935   83.1009   17.4062 H       1  UNL1        0.2102
     27 C          59.8725   91.7776    4.1277 C.ar    1  UNL1        0.0869
     28 C          61.2833   91.3930    4.4617 C.ar    1  UNL1        0.1179
     29 N          61.5516   90.4020    5.5553 N.ar    1  UNL1       -0.2105
     30 C          60.4092   89.7957    6.3149 C.ar    1  UNL1        0.2242
     31 N          58.9982   90.1803    5.9809 N.ar    1  UNL1       -0.2105
     32 C          58.7299   91.1713    4.8873 C.ar    1  UNL1        0.1179
     33 N          59.0675   94.7505    0.8468 N.3     1  UNL1       -0.1559
     34 C          59.8417   95.1664    2.0625 C.3     1  UNL1        0.1168
     35 C          60.1100   94.1755    3.1561 C.3     1  UNL1        0.1100
     36 N          59.6042   92.7686    3.0340 N.pl3   1  UNL1       -0.3021
     37 C          58.8301   92.3527    1.8184 C.3     1  UNL1        0.1100
     38 C          58.5617   93.3437    0.7248 C.3     1  UNL1        0.1168
     39 C          58.5309   96.7325   -1.3404 C.3     1  UNL1        0.1960
     40 S          58.7992   95.7415   -0.2468 S.O2    1  UNL1        0.0458
     41 O          57.7174   94.8534   -0.7861 O.2     1  UNL1       -0.1572
     42 O          59.8810   96.6296    0.2926 O.2     1  UNL1       -0.1572
@<TRIPOS>BOND
     1    39    40    1
     2    40    41    2
     3    40    42    2
     4    40    33    1
     5    33    34    1
     6    34    35    1
     7    35    36    1
     8    36    27    1
     9    27    28   ar
    10    28    29   ar
    11    29    30   ar
    12    30     1    1
    13     1     2    1
    14     2     3    1
    15     3     4    1
    16     4     5   am
    17     5     6    2
    18     5     7   am
    19    15     7    1
    20    15    16    1
    21    16    17    1
    22    17    18    1
    23    18    19    1
    24    19    20    1
    25    20    21    1
    26    21    22    1
    27    22    23    1
    28    22    24    1
    29    22    25    1
    30     4     8    1
    31     8     9   ar
    32     9    10   ar
    33    10    11   ar
    34    11    12   ar
    35    12    13   ar
    36    30    31   ar
    37    31    32   ar
    38    36    37    1
    39    37    38    1
    40    38    33    1
    41    32    27   ar
    42    13     1    1
    43    20    15    1
    44    13     8   ar
    45    25    16    1
    46    24    18    1
    47     7    14    1
    48    23    26    1
@<TRIPOS>MOLECULE
*****
 42 48 0 0 0
SMALL
GASTEIGER

@<TRIPOS>ATOM
      1 N          60.6631   88.8726    7.6747 N.pl3   1  UNL1       -0.2543
      2 C          61.2712   87.5288    7.4019 C.3     1  UNL1        0.1203
      3 C          61.5330   86.5803    8.5341 C.3     1  UNL1        0.1216
      4 N          61.1866   86.9755    9.9390 N.am    1  UNL1       -0.2403
      5 C          61.4484   86.0269   11.0711 C.2     1  UNL1        0.3078
      6 O          61.1020   86.4222   12.4761 O.2     1  UNL1       -0.2522
      7 N          62.0565   84.6832   10.7984 N.am    1  UNL1       -0.2901
      8 C          60.5784   88.3193   10.2118 C.ar    1  UNL1        0.0690
      9 C          60.2321   88.7145   11.6167 C.ar    1  UNL1        0.0162
     10 C          59.6240   90.0583   11.8895 C.ar    1  UNL1        0.0014
     11 C          59.3622   91.0068   10.7573 C.ar    1  UNL1        0.0014
     12 C          59.7086   90.6116    9.3524 C.ar    1  UNL1        0.0162
     13 C          60.3167   89.2678    9.0797 C.ar    1  UNL1        0.0678
     14 H          62.2838   84.4237    9.8763 H       1  UNL1        0.1509
     15 C          62.3182   83.7346   11.9305 C.3     1  UNL1        0.0731
     16 C          62.3737   82.2577   11.6739 C.3     1  UNL1        0.0204
     17 C          62.5800   82.7861   13.0626 C.3     1  UNL1        0.0018
     18 C          62.8418   81.8375   14.1948 C.3     1  UNL1        0.0024
     19 C          62.7863   83.3144   14.4513 C.3     1  UNL1        0.0018
     20 C          62.5245   84.2629   13.3191 C.3     1  UNL1        0.0204
     21 C          62.7780   80.9900   13.4994 C.3     1  UNL1        0.0285
     22 C          62.6910   79.8323   12.5496 C.3     1  UNL1        0.0884
     23 O          62.7465   78.3555   12.2931 O.3     1  UNL1       -0.3867
     24 C          62.8973   80.3606   13.9382 C.3     1  UNL1        0.0269
     25 C          62.4292   80.7809   11.4175 C.3     1  UNL1        0.0285
     26 H          62.9232   77.8892   13.1252 H       1  UNL1        0.2102
     27 C          59.8778   91.7182    4.2783 C.ar    1  UNL1        0.0869
     28 C          58.7301   91.1254    5.0407 C.ar    1  UNL1        0.1179
     29 N          58.9918   90.1769    6.1728 N.ar    1  UNL1       -0.2105
     30 C          60.4013   89.8211    6.5426 C.ar    1  UNL1        0.2242
     31 N          61.5491   90.4139    5.7801 N.ar    1  UNL1       -0.2105
     32 C          61.2874   91.3624    4.6480 C.ar    1  UNL1        0.1179
     33 N          59.0925   94.5638    0.8819 N.3     1  UNL1       -0.1559
     34 C          58.5708   93.1588    0.8190 C.3     1  UNL1        0.1168
     35 C          58.8326   92.2103    1.9511 C.3     1  UNL1        0.1100
     36 N          59.6160   92.6667    3.1461 N.pl3   1  UNL1       -0.3021
     37 C          60.1377   94.0717    3.2089 C.3     1  UNL1        0.1100
     38 C          59.8759   95.0202    2.0768 C.3     1  UNL1        0.1168
     39 C          58.5690   96.4609   -1.3824 C.3     1  UNL1        0.1960
     40 S          58.8308   95.5124   -0.2503 S.O2    1  UNL1        0.0458
     41 O          59.6531   96.5611    0.4382 O.2     1  UNL1       -0.1572
     42 O          58.0084   94.4637   -0.9388 O.2     1  UNL1       -0.1572
@<TRIPOS>BOND
     1    39    40    1
     2    40    41    2
     3    40    42    2
     4    40    33    1
     5    33    34    1
     6    34    35    1
     7    35    36    1
     8    36    27    1
     9    27    28   ar
    10    28    29   ar
    11    29    30   ar
    12    30     1    1
    13     1     2    1
    14     2     3    1
    15     3     4    1
    16     4     5   am
    17     5     6    2
    18     5     7   am
    19    15     7    1
    20    15    16    1
    21    16    17    1
    22    17    18    1
    23    18    19    1
    24    19    20    1
    25    20    21    1
    26    21    22    1
    27    22    23    1
    28    22    24    1
    29    22    25    1
    30     4     8    1
    31     8     9   ar
    32     9    10   ar
    33    10    11   ar
    34    11    12   ar
    35    12    13   ar
    36    30    31   ar
    37    31    32   ar
    38    36    37    1
    39    37    38    1
    40    38    33    1
    41    32    27   ar
    42    13     1    1
    43    20    15    1
    44    13     8   ar
    45    25    16    1
    46    24    18    1
    47     7    14    1
    48    23    26    1
