@<TRIPOS>MOLECULE
*****
 38 41 0 0 0
SMALL
GASTEIGER

@<TRIPOS>ATOM
      1 N          61.9037   90.2844   10.8073 N.am    1  UNL1       -0.2668
      2 C          61.9508   88.8617   10.3343 C.2     1  UNL1        0.3080
      3 O          62.9497   87.9089   10.9209 O.2     1  UNL1       -0.2522
      4 N          60.9987   88.3918    9.2746 N.am    1  UNL1       -0.2572
      5 C          59.9506   89.2251    8.5986 C.3     1  UNL1        0.0955
      6 C          59.2319   88.3544    7.6111 C.3     1  UNL1        0.0238
      7 C          59.8358   86.9829    7.6768 C.3     1  UNL1        0.0310
      8 C          60.9278   87.0060    8.7049 C.3     1  UNL1        0.1534
      9 H          61.2481   90.9098   10.4222 H       1  UNL1        0.1565
     10 N          63.2912   90.3477   16.4194 N.am    1  UNL1       -0.3108
     11 C          64.2028   91.0945   15.4912 C.2     1  UNL1        0.3169
     12 O          65.4045   91.8091   16.0343 O.2     1  UNL1       -0.2494
     13 N          63.9125   91.1267   14.0199 N.ar    1  UNL1       -0.2601
     14 C          62.7548   90.4630   13.3349 C.ar    1  UNL1        0.0988
     15 C          62.8557   90.7543   11.8670 C.ar    1  UNL1        0.0708
     16 C          64.0759   91.5981   11.6447 C.ar    1  UNL1        0.0312
     17 C          64.6765   92.1865   10.4026 C.ar    1  UNL1        0.0027
     18 C          65.9303   93.0051   10.4911 C.ar    1  UNL1        0.0001
     19 C          66.5835   93.2352   11.8217 C.ar    1  UNL1        0.0015
     20 C          65.9828   92.6468   13.0638 C.ar    1  UNL1        0.0177
     21 C          64.7290   91.8282   12.9753 C.ar    1  UNL1        0.0693
     22 H          63.4818   90.3266   17.3850 H       1  UNL1        0.1467
     23 H          62.5024   89.8787   16.0629 H       1  UNL1        0.1467
     24 C          61.7963   85.8469    9.0948 C.2     1  UNL1        0.2442
     25 O          62.6260   85.1491    8.0579 O.2     1  UNL1       -0.2730
     26 N          61.8353   85.3855   10.5215 N.am    1  UNL1       -0.2825
     27 H          61.2908   85.8434   11.2020 H       1  UNL1        0.1549
     28 C          62.7039   84.2263   10.9114 C.ar    1  UNL1        0.0534
     29 C          63.8435   83.8126   10.0283 C.ar    1  UNL1        0.0149
     30 C          64.7120   82.6535   10.4182 C.ar    1  UNL1        0.0044
     31 C          64.4409   81.9081   11.6913 C.ar    1  UNL1        0.0373
     32 C          63.3012   82.3218   12.5745 C.ar    1  UNL1        0.1480
     33 C          62.4327   83.4808   12.1845 C.ar    1  UNL1        0.0518
     34 O          63.0301   81.5763   13.8476 O.3     1  UNL1       -0.4044
     35 C          61.6616   81.0242   14.1164 C.3     1  UNL1        0.5753
     36 F          60.2930   80.4719   14.3853 F       1  UNL1       -0.1328
     37 F          61.9988   79.7997   13.3184 F       1  UNL1       -0.1328
     38 F          61.3242   82.2485   14.9145 F       1  UNL1       -0.1328
@<TRIPOS>BOND
     1    10    11   am
     2    11    12    2
     3    11    13   am
     4    13    14   ar
     5    14    15   ar
     6    15     1    1
     7     1     2   am
     8     2     3    2
     9     2     4   am
    10     4     5    1
    11     5     6    1
    12     6     7    1
    13     7     8    1
    14     8    24    1
    15    24    25    2
    16    24    26   am
    17    26    28    1
    18    28    29   ar
    19    29    30   ar
    20    30    31   ar
    21    31    32   ar
    22    32    34    1
    23    34    35    1
    24    35    36    1
    25    35    37    1
    26    35    38    1
    27    32    33   ar
    28    15    16   ar
    29    16    17   ar
    30    17    18   ar
    31    18    19   ar
    32    19    20   ar
    33    20    21   ar
    34    21    13   ar
    35     8     4    1
    36    33    28   ar
    37    21    16   ar
    38    10    22    1
    39    10    23    1
    40     1     9    1
    41    26    27    1
@<TRIPOS>MOLECULE
*****
 38 41 0 0 0
SMALL
GASTEIGER

@<TRIPOS>ATOM
      1 N          62.0582   90.5601   10.0789 N.am    1  UNL1       -0.2668
      2 C          61.9992   89.0886    9.7932 C.2     1  UNL1        0.3080
      3 O          63.0635   88.1774   10.3288 O.2     1  UNL1       -0.2522
      4 N          60.8758   88.5285    8.9721 N.am    1  UNL1       -0.2572
      5 C          59.7459   89.3121    8.3727 C.3     1  UNL1        0.0955
      6 C          58.8569   88.3542    7.6364 C.3     1  UNL1        0.0238
      7 C          59.4374   86.9786    7.7807 C.3     1  UNL1        0.0310
      8 C          60.6851   87.0863    8.6062 C.3     1  UNL1        0.1534
      9 H          61.3596   91.1581    9.7274 H       1  UNL1        0.1565
     10 N          66.6885   94.0165   10.2735 N.am    1  UNL1       -0.3108
     11 C          66.3346   93.2919   11.5384 C.2     1  UNL1        0.3169
     12 O          67.1680   93.4833   12.7707 O.2     1  UNL1       -0.2494
     13 N          65.1472   92.3759   11.5709 N.ar    1  UNL1       -0.2601
     14 C          64.2252   92.0865   10.4236 C.ar    1  UNL1        0.0988
     15 C          63.1816   91.1202   10.9000 C.ar    1  UNL1        0.0708
     16 C          63.4584   90.8124   12.3417 C.ar    1  UNL1        0.0312
     17 C          62.7613   89.9257   13.3305 C.ar    1  UNL1        0.0027
     18 C          63.2790   89.8151   14.7340 C.ar    1  UNL1        0.0001
     19 C          64.4938   90.5912   15.1486 C.ar    1  UNL1        0.0015
     20 C          65.1910   91.4778   14.1598 C.ar    1  UNL1        0.0177
     21 C          64.6732   91.5885   12.7564 C.ar    1  UNL1        0.0693
     22 H          67.4678   94.6177   10.2522 H       1  UNL1        0.1467
     23 H          66.1415   93.8908    9.4647 H       1  UNL1        0.1467
     24 C          61.5843   85.9512    8.9972 C.2     1  UNL1        0.2442
     25 O          62.3344   85.1913    7.9436 O.2     1  UNL1       -0.2730
     26 N          61.7335   85.5759   10.4418 N.am    1  UNL1       -0.2825
     27 H          61.2412   86.0746   11.1333 H       1  UNL1        0.1549
     28 C          62.6327   84.4408   10.8328 C.ar    1  UNL1        0.0534
     29 C          63.7453   84.0168    9.9207 C.ar    1  UNL1        0.0149
     30 C          64.6445   82.8817   10.3117 C.ar    1  UNL1        0.0044
     31 C          64.4311   82.1705   11.6150 C.ar    1  UNL1        0.0373
     32 C          63.3184   82.5945   12.5273 C.ar    1  UNL1        0.1480
     33 C          62.4193   83.7296   12.1362 C.ar    1  UNL1        0.0518
     34 O          63.1049   81.8833   13.8306 O.3     1  UNL1       -0.4044
     35 C          61.7696   81.2759   14.1436 C.3     1  UNL1        0.5753
     36 F          60.4342   80.6686   14.4567 F       1  UNL1       -0.1328
     37 F          61.4102   82.4847   14.9558 F       1  UNL1       -0.1328
     38 F          62.1289   80.0672   13.3314 F       1  UNL1       -0.1328
@<TRIPOS>BOND
     1    10    11   am
     2    11    12    2
     3    11    13   am
     4    13    14   ar
     5    14    15   ar
     6    15     1    1
     7     1     2   am
     8     2     3    2
     9     2     4   am
    10     4     5    1
    11     5     6    1
    12     6     7    1
    13     7     8    1
    14     8    24    1
    15    24    25    2
    16    24    26   am
    17    26    28    1
    18    28    29   ar
    19    29    30   ar
    20    30    31   ar
    21    31    32   ar
    22    32    34    1
    23    34    35    1
    24    35    36    1
    25    35    37    1
    26    35    38    1
    27    32    33   ar
    28    15    16   ar
    29    16    17   ar
    30    17    18   ar
    31    18    19   ar
    32    19    20   ar
    33    20    21   ar
    34    21    13   ar
    35     8     4    1
    36    33    28   ar
    37    21    16   ar
    38    10    22    1
    39    10    23    1
    40     1     9    1
    41    26    27    1
@<TRIPOS>MOLECULE
*****
 38 41 0 0 0
SMALL
GASTEIGER

@<TRIPOS>ATOM
      1 N          62.1770   90.1337   10.9921 N.am    1  UNL1       -0.2668
      2 C          62.2032   88.6576   10.7267 C.2     1  UNL1        0.3080
      3 O          63.1173   87.7694   11.5176 O.2     1  UNL1       -0.2522
      4 N          61.3153   88.0696    9.6703 N.am    1  UNL1       -0.2572
      5 C          60.3542   88.8284    8.8039 C.3     1  UNL1        0.0955
      6 C          59.6775   87.8474    7.8930 C.3     1  UNL1        0.0238
      7 C          60.2204   86.4824    8.1964 C.3     1  UNL1        0.0310
      8 C          61.2326   86.6197    9.2948 C.3     1  UNL1        0.1534
      9 H          61.5771   90.7167   10.4730 H       1  UNL1        0.1565
     10 N          63.4270   90.5427   16.6219 N.am    1  UNL1       -0.3108
     11 C          64.2983   91.3196   15.6798 C.2     1  UNL1        0.3169
     12 O          65.4277   92.1492   16.2144 O.2     1  UNL1       -0.2494
     13 N          64.0400   91.2667   14.2032 N.ar    1  UNL1       -0.2601
     14 C          62.9536   90.4853   13.5256 C.ar    1  UNL1        0.0988
     15 C          63.0650   90.7217   12.0485 C.ar    1  UNL1        0.0708
     16 C          64.2201   91.6492   11.8132 C.ar    1  UNL1        0.0312
     17 C          64.8011   92.2305   10.5585 C.ar    1  UNL1        0.0027
     18 C          65.9847   93.1487   10.6354 C.ar    1  UNL1        0.0001
     19 C          66.5873   93.4856   11.9671 C.ar    1  UNL1        0.0015
     20 C          66.0063   92.9043   13.2218 C.ar    1  UNL1        0.0177
     21 C          64.8227   91.9861   13.1449 C.ar    1  UNL1        0.0693
     22 H          63.5965   90.5774   17.5911 H       1  UNL1        0.1467
     23 H          62.6856   89.9982   16.2711 H       1  UNL1        0.1467
     24 C          62.0233   85.5032    9.9099 C.2     1  UNL1        0.2442
     25 O          63.0027   84.7304    9.0770 O.2     1  UNL1       -0.2730
     26 N          61.8346   85.1596   11.3577 N.am    1  UNL1       -0.2825
     27 H          61.1918   85.6668   11.9043 H       1  UNL1        0.1549
     28 C          62.6253   84.0431   11.9727 C.ar    1  UNL1        0.0534
     29 C          63.7237   84.3500   12.9470 C.ar    1  UNL1        0.0149
     30 C          64.5144   83.2335   13.5620 C.ar    1  UNL1        0.0044
     31 C          64.2067   81.8101   13.2027 C.ar    1  UNL1        0.0373
     32 C          63.1083   81.5031   12.2283 C.ar    1  UNL1        0.1480
     33 C          62.3177   82.6196   11.6134 C.ar    1  UNL1        0.0518
     34 O          62.8006   80.0797   11.8690 O.3     1  UNL1       -0.4044
     35 C          62.9662   79.6109   10.4538 C.3     1  UNL1        0.5753
     36 F          63.1318   79.1420    9.0385 F       1  UNL1       -0.1328
     37 F          63.4244   80.9818   10.0532 F       1  UNL1       -0.1328
     38 F          62.5081   78.2399   10.8543 F       1  UNL1       -0.1328
@<TRIPOS>BOND
     1    10    11   am
     2    11    12    2
     3    11    13   am
     4    13    14   ar
     5    14    15   ar
     6    15     1    1
     7     1     2   am
     8     2     3    2
     9     2     4   am
    10     4     5    1
    11     5     6    1
    12     6     7    1
    13     7     8    1
    14     8    24    1
    15    24    25    2
    16    24    26   am
    17    26    28    1
    18    28    29   ar
    19    29    30   ar
    20    30    31   ar
    21    31    32   ar
    22    32    34    1
    23    34    35    1
    24    35    36    1
    25    35    37    1
    26    35    38    1
    27    32    33   ar
    28    15    16   ar
    29    16    17   ar
    30    17    18   ar
    31    18    19   ar
    32    19    20   ar
    33    20    21   ar
    34    21    13   ar
    35     8     4    1
    36    33    28   ar
    37    21    16   ar
    38    10    22    1
    39    10    23    1
    40     1     9    1
    41    26    27    1
@<TRIPOS>MOLECULE
*****
 38 41 0 0 0
SMALL
GASTEIGER

@<TRIPOS>ATOM
      1 N          63.9376   89.8297   15.4465 N.am    1  UNL1       -0.2668
      2 C          63.8681   88.3595   15.1567 C.2     1  UNL1        0.3080
      3 O          64.2761   87.8405   13.8098 O.2     1  UNL1       -0.2522
      4 N          63.3906   87.4085   16.2138 N.am    1  UNL1       -0.2572
      5 C          62.9518   87.7785   17.5996 C.3     1  UNL1        0.0955
      6 C          62.5581   86.5191   18.3130 C.3     1  UNL1        0.0238
      7 C          62.7536   85.3707   17.3680 C.3     1  UNL1        0.0310
      8 C          63.2681   85.9203   16.0707 C.3     1  UNL1        0.1534
      9 H          63.6698   90.1704   16.3305 H       1  UNL1        0.1565
     10 N          67.4481   94.2129   14.0724 N.am    1  UNL1       -0.3108
     11 C          66.5609   93.6920   12.9806 C.2     1  UNL1        0.3169
     12 O          66.6140   94.3072   11.6137 O.2     1  UNL1       -0.2494
     13 N          65.6209   92.5561   13.2560 N.ar    1  UNL1       -0.2601
     14 C          65.4579   91.8443   14.5662 C.ar    1  UNL1        0.0988
     15 C          64.4151   90.7808   14.3894 C.ar    1  UNL1        0.0708
     16 C          63.9335   90.8352   12.9698 C.ar    1  UNL1        0.0312
     17 C          62.9127   90.0275   12.2246 C.ar    1  UNL1        0.0027
     18 C          62.6371   90.3169   10.7789 C.ar    1  UNL1        0.0001
     19 C          63.3823   91.4141   10.0784 C.ar    1  UNL1        0.0015
     20 C          64.4032   92.2219   10.8236 C.ar    1  UNL1        0.0177
     21 C          64.6787   91.9324   12.2693 C.ar    1  UNL1        0.0693
     22 H          68.0651   94.9585   13.8917 H       1  UNL1        0.1467
     23 H          67.4133   93.8092   14.9696 H       1  UNL1        0.1467
     24 C          63.6015   85.1221   14.8453 C.2     1  UNL1        0.2442
     25 O          65.0239   84.7368   14.5652 O.2     1  UNL1       -0.2730
     26 N          62.5126   84.7090   13.9000 N.am    1  UNL1       -0.2825
     27 H          61.5791   84.9619   14.0838 H       1  UNL1        0.1549
     28 C          62.8461   83.9108   12.6746 C.ar    1  UNL1        0.0534
     29 C          62.9008   82.4136   12.7467 C.ar    1  UNL1        0.0149
     30 C          63.2343   81.6153   11.5213 C.ar    1  UNL1        0.0044
     31 C          63.5130   82.3143   10.2238 C.ar    1  UNL1        0.0373
     32 C          63.4583   83.8116   10.1516 C.ar    1  UNL1        0.1480
     33 C          63.1249   84.6098   11.3770 C.ar    1  UNL1        0.0518
     34 O          63.7371   84.5106    8.8541 O.3     1  UNL1       -0.4044
     35 C          62.6391   85.2520    8.1506 C.3     1  UNL1        0.5753
     36 F          61.5411   85.9933    7.4471 F       1  UNL1       -0.1328
     37 F          62.5825   84.1770    7.1060 F       1  UNL1       -0.1328
     38 F          62.6957   86.3270    9.1951 F       1  UNL1       -0.1328
@<TRIPOS>BOND
     1    10    11   am
     2    11    12    2
     3    11    13   am
     4    13    14   ar
     5    14    15   ar
     6    15     1    1
     7     1     2   am
     8     2     3    2
     9     2     4   am
    10     4     5    1
    11     5     6    1
    12     6     7    1
    13     7     8    1
    14     8    24    1
    15    24    25    2
    16    24    26   am
    17    26    28    1
    18    28    29   ar
    19    29    30   ar
    20    30    31   ar
    21    31    32   ar
    22    32    34    1
    23    34    35    1
    24    35    36    1
    25    35    37    1
    26    35    38    1
    27    32    33   ar
    28    15    16   ar
    29    16    17   ar
    30    17    18   ar
    31    18    19   ar
    32    19    20   ar
    33    20    21   ar
    34    21    13   ar
    35     8     4    1
    36    33    28   ar
    37    21    16   ar
    38    10    22    1
    39    10    23    1
    40     1     9    1
    41    26    27    1
@<TRIPOS>MOLECULE
*****
 38 41 0 0 0
SMALL
GASTEIGER

@<TRIPOS>ATOM
      1 N          62.5494   90.7305   10.3267 N.am    1  UNL1       -0.2668
      2 C          62.2931   89.2564   10.4341 C.2     1  UNL1        0.3080
      3 O          63.0647   88.4309   11.4207 O.2     1  UNL1       -0.2522
      4 N          61.2652   88.6078    9.5550 N.am    1  UNL1       -0.2572
      5 C          60.4204   89.3006    8.5273 C.3     1  UNL1        0.0955
      6 C          59.5348   88.2735    7.8864 C.3     1  UNL1        0.0238
      7 C          59.8323   86.9459    8.5180 C.3     1  UNL1        0.0310
      8 C          60.9018   87.1525    9.5493 C.3     1  UNL1        0.1534
      9 H          62.0429   91.2723    9.6792 H       1  UNL1        0.1565
     10 N          66.9376   94.4722   10.7365 N.am    1  UNL1       -0.3108
     11 C          66.5413   93.7575   11.9945 C.2     1  UNL1        0.3169
     12 O          67.2743   94.0301   13.2745 O.2     1  UNL1       -0.2494
     13 N          65.4121   92.7704   11.9724 N.ar    1  UNL1       -0.2601
     14 C          64.5911   92.3967   10.7740 C.ar    1  UNL1        0.0988
     15 C          63.5772   91.3791   11.2058 C.ar    1  UNL1        0.0708
     16 C          63.7716   91.1238   12.6711 C.ar    1  UNL1        0.0312
     17 C          63.0626   90.2195   13.6351 C.ar    1  UNL1        0.0027
     18 C          63.4876   90.1751   15.0729 C.ar    1  UNL1        0.0001
     19 C          64.6216   91.0350   15.5467 C.ar    1  UNL1        0.0015
     20 C          65.3307   91.9394   14.5827 C.ar    1  UNL1        0.0177
     21 C          64.9057   91.9838   13.1449 C.ar    1  UNL1        0.0693
     22 H          67.6787   95.1200   10.7511 H       1  UNL1        0.1467
     23 H          66.4565   94.2933    9.8964 H       1  UNL1        0.1467
     24 C          61.5024   86.0903   10.4217 C.2     1  UNL1        0.2442
     25 O          61.0365   85.9315   11.8386 O.2     1  UNL1       -0.2730
     26 N          62.5688   85.1870    9.8771 N.am    1  UNL1       -0.2825
     27 H          62.8746   85.2912    8.9471 H       1  UNL1        0.1549
     28 C          63.1695   84.1248   10.7495 C.ar    1  UNL1        0.0534
     29 C          63.7008   82.8630   10.1370 C.ar    1  UNL1        0.0149
     30 C          64.3014   81.8008   11.0093 C.ar    1  UNL1        0.0044
     31 C          64.3707   82.0006   12.4943 C.ar    1  UNL1        0.0373
     32 C          63.8393   83.2625   13.1070 C.ar    1  UNL1        0.1480
     33 C          63.2388   84.3246   12.2346 C.ar    1  UNL1        0.0518
     34 O          63.9086   83.4622   14.5920 O.3     1  UNL1       -0.4044
     35 C          64.1566   84.8307   15.1539 C.3     1  UNL1        0.5753
     36 F          64.4048   86.1993   15.7157 F       1  UNL1       -0.1328
     37 F          65.5036   84.8574   14.4943 F       1  UNL1       -0.1328
     38 F          62.8098   84.8041   15.8134 F       1  UNL1       -0.1328
@<TRIPOS>BOND
     1    10    11   am
     2    11    12    2
     3    11    13   am
     4    13    14   ar
     5    14    15   ar
     6    15     1    1
     7     1     2   am
     8     2     3    2
     9     2     4   am
    10     4     5    1
    11     5     6    1
    12     6     7    1
    13     7     8    1
    14     8    24    1
    15    24    25    2
    16    24    26   am
    17    26    28    1
    18    28    29   ar
    19    29    30   ar
    20    30    31   ar
    21    31    32   ar
    22    32    34    1
    23    34    35    1
    24    35    36    1
    25    35    37    1
    26    35    38    1
    27    32    33   ar
    28    15    16   ar
    29    16    17   ar
    30    17    18   ar
    31    18    19   ar
    32    19    20   ar
    33    20    21   ar
    34    21    13   ar
    35     8     4    1
    36    33    28   ar
    37    21    16   ar
    38    10    22    1
    39    10    23    1
    40     1     9    1
    41    26    27    1
@<TRIPOS>MOLECULE
*****
 38 41 0 0 0
SMALL
GASTEIGER

@<TRIPOS>ATOM
      1 N          63.9437   89.8506   15.4415 N.am    1  UNL1       -0.2668
      2 C          63.8959   88.3861   15.1201 C.2     1  UNL1        0.3080
      3 O          64.3537   87.8976   13.7779 O.2     1  UNL1       -0.2522
      4 N          63.3904   87.4103   16.1410 N.am    1  UNL1       -0.2572
      5 C          62.9017   87.7490   17.5181 C.3     1  UNL1        0.0955
      6 C          62.4940   86.4725   18.1922 C.3     1  UNL1        0.0238
      7 C          62.7307   85.3449   17.2317 C.3     1  UNL1        0.0310
      8 C          63.2847   85.9246   15.9639 C.3     1  UNL1        0.1534
      9 H          63.6433   90.1713   16.3225 H       1  UNL1        0.1565
     10 N          63.6037   91.8357   10.0223 N.am    1  UNL1       -0.3108
     11 C          64.6022   92.5012   10.9225 C.2     1  UNL1        0.3169
     12 O          65.4507   93.6230   10.4017 O.2     1  UNL1       -0.2494
     13 N          64.7520   92.0447   12.3435 N.ar    1  UNL1       -0.2601
     14 C          63.9773   90.9416   13.0015 C.ar    1  UNL1        0.0988
     15 C          64.4493   90.8264   14.4207 C.ar    1  UNL1        0.0708
     16 C          65.5157   91.8583   14.6397 C.ar    1  UNL1        0.0312
     17 C          66.3406   92.2096   15.8423 C.ar    1  UNL1        0.0027
     18 C          67.3525   93.3138   15.7610 C.ar    1  UNL1        0.0001
     19 C          67.5395   94.0668   14.4773 C.ar    1  UNL1        0.0015
     20 C          66.7147   93.7155   13.2747 C.ar    1  UNL1        0.0177
     21 C          65.7028   92.6113   13.3560 C.ar    1  UNL1        0.0693
     22 H          63.5054   92.1353    9.0896 H       1  UNL1        0.1467
     23 H          63.0467   91.0994   10.3641 H       1  UNL1        0.1467
     24 C          63.6661   85.1538   14.7349 C.2     1  UNL1        0.2442
     25 O          65.0148   84.5034   14.6460 O.2     1  UNL1       -0.2730
     26 N          62.6987   85.0335   13.5949 N.am    1  UNL1       -0.2825
     27 H          61.8135   85.4604   13.6533 H       1  UNL1        0.1549
     28 C          63.0801   84.2627   12.3659 C.ar    1  UNL1        0.0534
     29 C          63.4650   82.8172   12.4764 C.ar    1  UNL1        0.0149
     30 C          63.8464   82.0465   11.2474 C.ar    1  UNL1        0.0044
     31 C          63.8429   82.7213    9.9078 C.ar    1  UNL1        0.0373
     32 C          63.4579   84.1668    9.7972 C.ar    1  UNL1        0.1480
     33 C          63.0766   84.9375   11.0262 C.ar    1  UNL1        0.0518
     34 O          63.4544   84.8416    8.4576 O.3     1  UNL1       -0.4044
     35 C          62.2095   85.5146    7.9601 C.3     1  UNL1        0.5753
     36 F          60.9647   86.1877    7.4627 F       1  UNL1       -0.1328
     37 F          62.4620   86.6666    8.8870 F       1  UNL1       -0.1328
     38 F          61.9570   84.3627    7.0333 F       1  UNL1       -0.1328
@<TRIPOS>BOND
     1    10    11   am
     2    11    12    2
     3    11    13   am
     4    13    14   ar
     5    14    15   ar
     6    15     1    1
     7     1     2   am
     8     2     3    2
     9     2     4   am
    10     4     5    1
    11     5     6    1
    12     6     7    1
    13     7     8    1
    14     8    24    1
    15    24    25    2
    16    24    26   am
    17    26    28    1
    18    28    29   ar
    19    29    30   ar
    20    30    31   ar
    21    31    32   ar
    22    32    34    1
    23    34    35    1
    24    35    36    1
    25    35    37    1
    26    35    38    1
    27    32    33   ar
    28    15    16   ar
    29    16    17   ar
    30    17    18   ar
    31    18    19   ar
    32    19    20   ar
    33    20    21   ar
    34    21    13   ar
    35     8     4    1
    36    33    28   ar
    37    21    16   ar
    38    10    22    1
    39    10    23    1
    40     1     9    1
    41    26    27    1
@<TRIPOS>MOLECULE
*****
 38 41 0 0 0
SMALL
GASTEIGER

@<TRIPOS>ATOM
      1 N          62.6045   90.2858   10.9697 N.am    1  UNL1       -0.2668
      2 C          62.3504   88.8087   11.0315 C.2     1  UNL1        0.3080
      3 O          62.9597   87.9881   12.1294 O.2     1  UNL1       -0.2522
      4 N          61.4871   88.1522    9.9953 N.am    1  UNL1       -0.2572
      5 C          60.8137   88.8395    8.8446 C.3     1  UNL1        0.0955
      6 C          60.0560   87.8052    8.0661 C.3     1  UNL1        0.0238
      7 C          60.2611   86.4787    8.7356 C.3     1  UNL1        0.0310
      8 C          61.1456   86.6931    9.9280 C.3     1  UNL1        0.1534
      9 H          62.2046   90.8243   10.2491 H       1  UNL1        0.1565
     10 N          63.8015   90.9648   16.5850 N.am    1  UNL1       -0.3108
     11 C          64.6574   91.7260   15.6164 C.2     1  UNL1        0.3169
     12 O          65.7592   92.6090   16.1226 O.2     1  UNL1       -0.2494
     13 N          64.4115   91.6043   14.1417 N.ar    1  UNL1       -0.2601
     14 C          63.3524   90.7647   13.4909 C.ar    1  UNL1        0.0988
     15 C          63.4679   90.9422   12.0059 C.ar    1  UNL1        0.0708
     16 C          64.5982   91.8915   11.7390 C.ar    1  UNL1        0.0312
     17 C          65.1717   92.4362   10.4645 C.ar    1  UNL1        0.0027
     18 C          66.3284   93.3900   10.5101 C.ar    1  UNL1        0.0001
     19 C          66.9117   93.7992   11.8301 C.ar    1  UNL1        0.0015
     20 C          66.3381   93.2545   13.1046 C.ar    1  UNL1        0.0177
     21 C          65.1814   92.3007   13.0590 C.ar    1  UNL1        0.0693
     22 H          63.9629   91.0447   17.5528 H       1  UNL1        0.1467
     23 H          63.0783   90.3853   16.2527 H       1  UNL1        0.1467
     24 C          61.6075   85.6344   10.8849 C.2     1  UNL1        0.2442
     25 O          61.2064   85.7019   12.3288 O.2     1  UNL1       -0.2730
     26 N          62.4704   84.5083   10.3981 N.am    1  UNL1       -0.2825
     27 H          62.7337   84.4640    9.4505 H       1  UNL1        0.1549
     28 C          62.9323   83.4496   11.3551 C.ar    1  UNL1        0.0534
     29 C          62.9895   82.0161   10.9173 C.ar    1  UNL1        0.0149
     30 C          63.4514   80.9574   11.8743 C.ar    1  UNL1        0.0044
     31 C          63.8561   81.3323   13.2692 C.ar    1  UNL1        0.0373
     32 C          63.7990   82.7658   13.7070 C.ar    1  UNL1        0.1480
     33 C          63.3371   83.8244   12.7500 C.ar    1  UNL1        0.0518
     34 O          64.2037   83.1407   15.1019 O.3     1  UNL1       -0.4044
     35 C          63.8591   84.4962   15.6441 C.3     1  UNL1        0.5753
     36 F          63.5146   85.8517   16.1863 F       1  UNL1       -0.1328
     37 F          65.1733   85.0268   15.1527 F       1  UNL1       -0.1328
     38 F          62.5450   83.9656   16.1355 F       1  UNL1       -0.1328
@<TRIPOS>BOND
     1    10    11   am
     2    11    12    2
     3    11    13   am
     4    13    14   ar
     5    14    15   ar
     6    15     1    1
     7     1     2   am
     8     2     3    2
     9     2     4   am
    10     4     5    1
    11     5     6    1
    12     6     7    1
    13     7     8    1
    14     8    24    1
    15    24    25    2
    16    24    26   am
    17    26    28    1
    18    28    29   ar
    19    29    30   ar
    20    30    31   ar
    21    31    32   ar
    22    32    34    1
    23    34    35    1
    24    35    36    1
    25    35    37    1
    26    35    38    1
    27    32    33   ar
    28    15    16   ar
    29    16    17   ar
    30    17    18   ar
    31    18    19   ar
    32    19    20   ar
    33    20    21   ar
    34    21    13   ar
    35     8     4    1
    36    33    28   ar
    37    21    16   ar
    38    10    22    1
    39    10    23    1
    40     1     9    1
    41    26    27    1
@<TRIPOS>MOLECULE
*****
 38 41 0 0 0
SMALL
GASTEIGER

@<TRIPOS>ATOM
      1 N          61.6278   85.5917   10.9625 N.am    1  UNL1       -0.2668
      2 C          61.8065   87.0802   10.9120 C.2     1  UNL1        0.3080
      3 O          62.7043   87.7618   11.9016 O.2     1  UNL1       -0.2522
      4 N          61.0875   87.8871    9.8718 N.am    1  UNL1       -0.2572
      5 C          60.1620   87.3477    8.8218 C.3     1  UNL1        0.0955
      6 C          59.6702   88.5023    8.0002 C.3     1  UNL1        0.0238
      7 C          60.2917   89.7551    8.5423 C.3     1  UNL1        0.0310
      8 C          61.1677   89.3749    9.6991 C.3     1  UNL1        0.1534
      9 H          61.0385   85.1443   10.3130 H       1  UNL1        0.1565
     10 N          64.2271   85.5204   16.1261 N.am    1  UNL1       -0.3108
     11 C          64.1747   84.2202   15.3799 C.2     1  UNL1        0.3169
     12 O          64.7794   82.9860   15.9804 O.2     1  UNL1       -0.2494
     13 N          63.5175   84.1544   14.0331 N.ar    1  UNL1       -0.2601
     14 C          62.8733   85.2996   13.3095 C.ar    1  UNL1        0.0988
     15 C          62.3469   84.7848   12.0027 C.ar    1  UNL1        0.0708
     16 C          62.6657   83.3215   11.9186 C.ar    1  UNL1        0.0312
     17 C          62.3907   82.2935   10.8615 C.ar    1  UNL1        0.0027
     18 C          62.8392   80.8759   11.0592 C.ar    1  UNL1        0.0001
     19 C          63.5628   80.4863   12.3141 C.ar    1  UNL1        0.0015
     20 C          63.8378   81.5143   13.3712 C.ar    1  UNL1        0.0177
     21 C          63.3892   82.9319   13.1734 C.ar    1  UNL1        0.0693
     22 H          64.6585   85.5636   17.0101 H       1  UNL1        0.1467
     23 H          63.8303   86.3306   15.7320 H       1  UNL1        0.1467
     24 C          61.9810   90.3171   10.5362 C.2     1  UNL1        0.2442
     25 O          61.3445   91.0378   11.6875 O.2     1  UNL1       -0.2730
     26 N          63.4309   90.5386   10.2220 N.am    1  UNL1       -0.2825
     27 H          63.8487   90.0656    9.4664 H       1  UNL1        0.1549
     28 C          64.2442   91.4808   11.0591 C.ar    1  UNL1        0.0534
     29 C          64.9082   92.6662   10.4238 C.ar    1  UNL1        0.0149
     30 C          65.7216   93.6084   11.2609 C.ar    1  UNL1        0.0044
     31 C          65.8709   93.3651   12.7335 C.ar    1  UNL1        0.0373
     32 C          65.2069   92.1796   13.3689 C.ar    1  UNL1        0.1480
     33 C          64.3936   91.2375   12.5318 C.ar    1  UNL1        0.0518
     34 O          65.3562   91.9364   14.8415 O.3     1  UNL1       -0.4044
     35 C          66.7126   92.0011   15.4786 C.3     1  UNL1        0.5753
     36 F          68.0691   92.0658   16.1157 F       1  UNL1       -0.1328
     37 F          66.2127   93.0405   16.4375 F       1  UNL1       -0.1328
     38 F          67.2127   90.9617   14.5197 F       1  UNL1       -0.1328
@<TRIPOS>BOND
     1    10    11   am
     2    11    12    2
     3    11    13   am
     4    13    14   ar
     5    14    15   ar
     6    15     1    1
     7     1     2   am
     8     2     3    2
     9     2     4   am
    10     4     5    1
    11     5     6    1
    12     6     7    1
    13     7     8    1
    14     8    24    1
    15    24    25    2
    16    24    26   am
    17    26    28    1
    18    28    29   ar
    19    29    30   ar
    20    30    31   ar
    21    31    32   ar
    22    32    34    1
    23    34    35    1
    24    35    36    1
    25    35    37    1
    26    35    38    1
    27    32    33   ar
    28    15    16   ar
    29    16    17   ar
    30    17    18   ar
    31    18    19   ar
    32    19    20   ar
    33    20    21   ar
    34    21    13   ar
    35     8     4    1
    36    33    28   ar
    37    21    16   ar
    38    10    22    1
    39    10    23    1
    40     1     9    1
    41    26    27    1
@<TRIPOS>MOLECULE
*****
 38 41 0 0 0
SMALL
GASTEIGER

@<TRIPOS>ATOM
      1 N          62.6085   90.6016   10.3597 N.am    1  UNL1       -0.2668
      2 C          62.3050   89.1443   10.5455 C.2     1  UNL1        0.3080
      3 O          63.0167   88.3595   11.6074 O.2     1  UNL1       -0.2522
      4 N          61.2899   88.4720    9.6695 N.am    1  UNL1       -0.2572
      5 C          60.5026   89.1241    8.5718 C.3     1  UNL1        0.0955
      6 C          59.6099   88.0847    7.9612 C.3     1  UNL1        0.0238
      7 C          59.8456   86.7902    8.6816 C.3     1  UNL1        0.0310
      8 C          60.8839   87.0296    9.7373 C.3     1  UNL1        0.1534
      9 H          62.1415   91.1167    9.6628 H       1  UNL1        0.1565
     10 N          67.0062   94.3365   10.7276 N.am    1  UNL1       -0.3108
     11 C          66.5844   93.6643   12.0006 C.2     1  UNL1        0.3169
     12 O          67.2959   93.9749   13.2840 O.2     1  UNL1       -0.2494
     13 N          65.4512   92.6816   11.9900 N.ar    1  UNL1       -0.2601
     14 C          64.6498   92.2730   10.7897 C.ar    1  UNL1        0.0988
     15 C          63.6237   91.2739   11.2358 C.ar    1  UNL1        0.0708
     16 C          63.7910   91.0651   12.7117 C.ar    1  UNL1        0.0312
     17 C          63.0608   90.1951   13.6915 C.ar    1  UNL1        0.0027
     18 C          63.4600   90.1952   15.1373 C.ar    1  UNL1        0.0001
     19 C          64.5895   91.0653   15.6035 C.ar    1  UNL1        0.0015
     20 C          65.3197   91.9352   14.6237 C.ar    1  UNL1        0.0177
     21 C          64.9204   91.9351   13.1779 C.ar    1  UNL1        0.0693
     22 H          67.7500   94.9815   10.7345 H       1  UNL1        0.1467
     23 H          66.5392   94.1327    9.8852 H       1  UNL1        0.1467
     24 C          61.4217   86.0063   10.6931 C.2     1  UNL1        0.2442
     25 O          60.9538   85.9921   12.1183 O.2     1  UNL1       -0.2730
     26 N          62.4274   84.9972   10.2238 N.am    1  UNL1       -0.2825
     27 H          62.7345   85.0065    9.2885 H       1  UNL1        0.1549
     28 C          62.9652   83.9739   11.1796 C.ar    1  UNL1        0.0534
     29 C          63.7910   84.4061   12.3548 C.ar    1  UNL1        0.0149
     30 C          64.3289   83.3828   13.3106 C.ar    1  UNL1        0.0044
     31 C          64.0408   81.9272   13.0912 C.ar    1  UNL1        0.0373
     32 C          63.2150   81.4949   11.9160 C.ar    1  UNL1        0.1480
     33 C          62.6772   82.5182   10.9603 C.ar    1  UNL1        0.0518
     34 O          62.9269   80.0393   11.6966 O.3     1  UNL1       -0.4044
     35 C          63.0076   79.4586   10.3159 C.3     1  UNL1        0.5753
     36 F          63.0882   78.8778    8.9352 F       1  UNL1       -0.1328
     37 F          62.2832   78.2332   10.7890 F       1  UNL1       -0.1328
     38 F          63.7320   80.6838    9.8429 F       1  UNL1       -0.1328
@<TRIPOS>BOND
     1    10    11   am
     2    11    12    2
     3    11    13   am
     4    13    14   ar
     5    14    15   ar
     6    15     1    1
     7     1     2   am
     8     2     3    2
     9     2     4   am
    10     4     5    1
    11     5     6    1
    12     6     7    1
    13     7     8    1
    14     8    24    1
    15    24    25    2
    16    24    26   am
    17    26    28    1
    18    28    29   ar
    19    29    30   ar
    20    30    31   ar
    21    31    32   ar
    22    32    34    1
    23    34    35    1
    24    35    36    1
    25    35    37    1
    26    35    38    1
    27    32    33   ar
    28    15    16   ar
    29    16    17   ar
    30    17    18   ar
    31    18    19   ar
    32    19    20   ar
    33    20    21   ar
    34    21    13   ar
    35     8     4    1
    36    33    28   ar
    37    21    16   ar
    38    10    22    1
    39    10    23    1
    40     1     9    1
    41    26    27    1
