@<TRIPOS>MOLECULE
*****
 31 35 0 0 0
SMALL
GASTEIGER

@<TRIPOS>ATOM
      1 C          63.4638   89.8588   11.6444 C.ar    1  UNL1        0.0028
      2 C          63.7480   90.7538   10.4747 C.ar    1  UNL1        0.0002
      3 C          64.5295   92.0190   10.6710 C.ar    1  UNL1        0.0029
      4 C          65.0268   92.3891   12.0369 C.ar    1  UNL1        0.0349
      5 C          65.8084   93.6543   12.2332 C.ar    1  UNL1        0.1535
      6 N          66.3057   94.0245   13.5991 N.ar    1  UNL1       -0.1329
      7 N          66.0214   93.1294   14.7687 N.ar    1  UNL1       -0.1452
      8 C          65.2399   91.8642   14.5725 C.ar    1  UNL1        0.1222
      9 C          64.7426   91.4941   13.2066 C.ar    1  UNL1        0.0237
     10 C          63.9611   90.2289   13.0103 C.ar    1  UNL1        0.0018
     11 C          62.7724   85.0790   13.0075 C.ar    1  UNL1        0.1705
     12 N          63.8911   85.7060   13.7854 N.ar    1  UNL1       -0.0621
     13 O          64.0369   87.1261   13.3249 O.2     1  UNL1       -0.3522
     14 C          63.0082   87.3767   12.2624 C.ar    1  UNL1        0.1777
     15 C          62.6822   88.5936   11.4481 C.ar    1  UNL1        0.0333
     16 C          61.5747   88.5452   10.4377 C.ar    1  UNL1       -0.0188
     17 C          61.2487   89.7621    9.6235 C.3     1  UNL1        0.0311
     18 C          60.7931   87.2800   10.2415 C.ar    1  UNL1       -0.0040
     19 C          61.1192   86.0632   11.0557 C.ar    1  UNL1        0.0057
     20 C          62.2267   86.1115   12.0662 C.ar    1  UNL1        0.0717
     21 N          62.2849   83.6673   13.1464 N.pl3   1  UNL1       -0.3155
     22 H          61.7184   83.4151   13.9111 H       1  UNL1        0.1483
     23 C          63.8850   82.8353   11.2763 C.3     1  UNL1        0.0230
     24 C          62.6605   82.6397   12.1203 C.3     1  UNL1        0.0883
     25 N          66.0926   94.5494   11.0635 N.pl3   1  UNL1       -0.2884
     26 C          65.3839   95.8652   10.9364 C.3     1  UNL1        0.1242
     27 C          65.6681   96.7603    9.7666 C.3     1  UNL1        0.1636
     28 O          66.6611   96.3394    8.7242 O.3     1  UNL1       -0.3502
     29 C          67.3699   95.0236    8.8513 C.3     1  UNL1        0.1618
     30 C          67.0857   94.1285   10.0210 C.3     1  UNL1        0.1039
     31 C          67.7944   92.8127   10.1481 C.3     1  UNL1        0.0241
@<TRIPOS>BOND
     1    23    24    1
     2    24    21    1
     3    21    11    1
     4    11    12   ar
     5    12    13   ar
     6    13    14   ar
     7    14    15   ar
     8    15     1    1
     9     1     2   ar
    10     2     3   ar
    11     3     4   ar
    12     4     5   ar
    13     5    25    1
    14    25    26    1
    15    26    27    1
    16    27    28    1
    17    28    29    1
    18    29    30    1
    19    30    31    1
    20     5     6   ar
    21     6     7   ar
    22     7     8   ar
    23     8     9   ar
    24     9    10   ar
    25    15    16   ar
    26    16    17    1
    27    16    18   ar
    28    18    19   ar
    29    19    20   ar
    30    20    11   ar
    31    20    14   ar
    32    10     1   ar
    33     9     4   ar
    34    30    25    1
    35    21    22    1
@<TRIPOS>MOLECULE
*****
 31 35 0 0 0
SMALL
GASTEIGER

@<TRIPOS>ATOM
      1 C          63.5483   90.0277   11.6144 C.ar    1  UNL1        0.0028
      2 C          63.8707   90.9297   10.4601 C.ar    1  UNL1        0.0002
      3 C          64.6984   92.1613   10.6791 C.ar    1  UNL1        0.0029
      4 C          65.2037   92.4910   12.0525 C.ar    1  UNL1        0.0349
      5 C          66.0314   93.7226   12.2715 C.ar    1  UNL1        0.1535
      6 N          66.5366   94.0523   13.6448 N.ar    1  UNL1       -0.1329
      7 N          66.2142   93.1503   14.7991 N.ar    1  UNL1       -0.1452
      8 C          65.3865   91.9187   14.5801 C.ar    1  UNL1        0.1222
      9 C          64.8812   91.5890   13.2068 C.ar    1  UNL1        0.0237
     10 C          64.0535   90.3574   12.9878 C.ar    1  UNL1        0.0018
     11 C          59.9507   87.7925    8.9230 C.ar    1  UNL1        0.1705
     12 N          60.2087   89.1849    8.4286 N.ar    1  UNL1       -0.0621
     13 O          61.2899   89.7852    9.2774 O.2     1  UNL1       -0.3522
     14 C          61.7002   88.7638   10.2964 C.ar    1  UNL1        0.1777
     15 C          62.7205   88.7961   11.3954 C.ar    1  UNL1        0.0333
     16 C          62.9132   87.5967   12.2754 C.ar    1  UNL1       -0.0188
     17 C          63.9335   87.6290   13.3745 C.3     1  UNL1        0.0311
     18 C          62.0854   86.3650   12.0565 C.ar    1  UNL1       -0.0040
     19 C          61.0651   86.3328   10.9574 C.ar    1  UNL1        0.0057
     20 C          60.8725   87.5322   10.0774 C.ar    1  UNL1        0.0717
     21 N          58.9471   86.8293    8.3617 N.pl3   1  UNL1       -0.3155
     22 H          58.0001   86.8979    8.6218 H       1  UNL1        0.1483
     23 C          60.8481   85.5175    7.1719 C.3     1  UNL1        0.0230
     24 C          59.3864   85.7617    7.4039 C.3     1  UNL1        0.0883
     25 N          66.3538   94.6246   11.1172 N.pl3   1  UNL1       -0.2884
     26 C          65.6671   95.9519   10.9878 C.3     1  UNL1        0.1242
     27 C          65.9895   96.8538    9.8334 C.3     1  UNL1        0.1636
     28 O          66.9987   96.4285    8.8085 O.3     1  UNL1       -0.3502
     29 C          67.6855   95.1013    8.9378 C.3     1  UNL1        0.1618
     30 C          67.3631   94.1993   10.0921 C.3     1  UNL1        0.1039
     31 C          68.0498   92.8721   10.2215 C.3     1  UNL1        0.0241
@<TRIPOS>BOND
     1    23    24    1
     2    24    21    1
     3    21    11    1
     4    11    12   ar
     5    12    13   ar
     6    13    14   ar
     7    14    15   ar
     8    15     1    1
     9     1     2   ar
    10     2     3   ar
    11     3     4   ar
    12     4     5   ar
    13     5    25    1
    14    25    26    1
    15    26    27    1
    16    27    28    1
    17    28    29    1
    18    29    30    1
    19    30    31    1
    20     5     6   ar
    21     6     7   ar
    22     7     8   ar
    23     8     9   ar
    24     9    10   ar
    25    15    16   ar
    26    16    17    1
    27    16    18   ar
    28    18    19   ar
    29    19    20   ar
    30    20    11   ar
    31    20    14   ar
    32    10     1   ar
    33     9     4   ar
    34    30    25    1
    35    21    22    1
@<TRIPOS>MOLECULE
*****
 31 35 0 0 0
SMALL
GASTEIGER

@<TRIPOS>ATOM
      1 C          63.9823   88.9798   13.9727 C.ar    1  UNL1        0.0028
      2 C          64.2474   87.5941   14.4820 C.ar    1  UNL1        0.0002
      3 C          63.7970   86.4042   13.6874 C.ar    1  UNL1        0.0029
      4 C          63.0816   86.6000   12.3837 C.ar    1  UNL1        0.0349
      5 C          62.6313   85.4100   11.5891 C.ar    1  UNL1        0.1535
      6 N          61.9159   85.6059   10.2853 N.ar    1  UNL1       -0.1329
      7 N          61.6509   86.9917    9.7761 N.ar    1  UNL1       -0.1452
      8 C          62.1012   88.1816   10.5706 C.ar    1  UNL1        0.1222
      9 C          62.8166   87.9858   11.8744 C.ar    1  UNL1        0.0237
     10 C          63.2670   89.1757   12.6689 C.ar    1  UNL1        0.0018
     11 C          67.0016   92.9802   14.2247 C.ar    1  UNL1        0.1705
     12 N          67.2048   92.2303   12.9417 N.ar    1  UNL1       -0.0621
     13 O          66.2730   91.0548   12.9393 O.2     1  UNL1       -0.3522
     14 C          65.4939   91.0783   14.2209 C.ar    1  UNL1        0.1777
     15 C          64.4327   90.1698   14.7672 C.ar    1  UNL1        0.0333
     16 C          63.8218   90.4513   16.1079 C.ar    1  UNL1       -0.0188
     17 C          62.7605   89.5428   16.6541 C.3     1  UNL1        0.0311
     18 C          64.2721   91.6413   16.9024 C.ar    1  UNL1       -0.0040
     19 C          65.3334   92.5497   16.3561 C.ar    1  UNL1        0.0057
     20 C          65.9443   92.2682   15.0153 C.ar    1  UNL1        0.0717
     21 N          67.7283   94.2237   14.6436 N.pl3   1  UNL1       -0.3155
     22 H          67.5484   95.0767   14.1861 H       1  UNL1        0.1483
     23 C          69.2788   92.8462   16.2083 C.3     1  UNL1        0.0230
     24 C          68.7290   94.1677   15.7596 C.3     1  UNL1        0.0883
     25 N          62.8963   84.0243   12.0984 N.pl3   1  UNL1       -0.2884
     26 C          62.3742   83.6060   13.4410 C.3     1  UNL1        0.1242
     27 C          62.6393   82.2201   13.9502 C.3     1  UNL1        0.1636
     28 O          63.4265   81.2527   13.1170 O.3     1  UNL1       -0.3502
     29 C          63.9486   81.6710   11.7745 C.3     1  UNL1        0.1618
     30 C          63.6836   83.0567   11.2652 C.3     1  UNL1        0.1039
     31 C          64.2057   83.4750    9.9227 C.3     1  UNL1        0.0241
@<TRIPOS>BOND
     1    23    24    1
     2    24    21    1
     3    21    11    1
     4    11    12   ar
     5    12    13   ar
     6    13    14   ar
     7    14    15   ar
     8    15     1    1
     9     1     2   ar
    10     2     3   ar
    11     3     4   ar
    12     4     5   ar
    13     5    25    1
    14    25    26    1
    15    26    27    1
    16    27    28    1
    17    28    29    1
    18    29    30    1
    19    30    31    1
    20     5     6   ar
    21     6     7   ar
    22     7     8   ar
    23     8     9   ar
    24     9    10   ar
    25    15    16   ar
    26    16    17    1
    27    16    18   ar
    28    18    19   ar
    29    19    20   ar
    30    20    11   ar
    31    20    14   ar
    32    10     1   ar
    33     9     4   ar
    34    30    25    1
    35    21    22    1
@<TRIPOS>MOLECULE
*****
 31 35 0 0 0
SMALL
GASTEIGER

@<TRIPOS>ATOM
      1 C          63.8708   89.1761   13.7781 C.ar    1  UNL1        0.0028
      2 C          63.0895   89.4855   12.5356 C.ar    1  UNL1        0.0002
      3 C          62.5721   88.3691   11.6776 C.ar    1  UNL1        0.0029
      4 C          62.8361   86.9435   12.0621 C.ar    1  UNL1        0.0349
      5 C          62.3187   85.8272   11.2041 C.ar    1  UNL1        0.1535
      6 N          62.5826   84.4015   11.5886 N.ar    1  UNL1       -0.1329
      7 N          63.3640   84.0922   12.8312 N.ar    1  UNL1       -0.1452
      8 C          63.8813   85.2085   13.6891 C.ar    1  UNL1        0.1222
      9 C          63.6174   86.6342   13.3046 C.ar    1  UNL1        0.0237
     10 C          64.1347   87.7505   14.1626 C.ar    1  UNL1        0.0018
     11 C          67.0432   93.0411   14.2027 C.ar    1  UNL1        0.1705
     12 N          67.1807   92.3739   12.8664 N.ar    1  UNL1       -0.0621
     13 O          66.2061   91.2349   12.8145 O.2     1  UNL1       -0.3522
     14 C          65.4662   91.1982   14.1188 C.ar    1  UNL1        0.1777
     15 C          64.3882   90.2925   14.6361 C.ar    1  UNL1        0.0333
     16 C          63.8276   90.5030   16.0113 C.ar    1  UNL1       -0.0188
     17 C          62.7496   89.5973   16.5286 C.3     1  UNL1        0.0311
     18 C          64.3450   91.6194   16.8694 C.ar    1  UNL1       -0.0040
     19 C          65.4230   92.5251   16.3521 C.ar    1  UNL1        0.0057
     20 C          65.9836   92.3145   14.9768 C.ar    1  UNL1        0.0717
     21 N          67.8276   94.2267   14.6811 N.pl3   1  UNL1       -0.3155
     22 H          67.7121   95.1018   14.2451 H       1  UNL1        0.1483
     23 C          69.2614   92.7163   16.2344 C.3     1  UNL1        0.0230
     24 C          68.7881   94.0791   15.8238 C.3     1  UNL1        0.0883
     25 N          61.5374   86.1365    9.9616 N.pl3   1  UNL1       -0.2884
     26 C          60.2764   86.9440   10.0501 C.3     1  UNL1        0.1242
     27 C          59.4950   87.2533    8.8075 C.3     1  UNL1        0.1636
     28 O          59.9748   86.7552    7.4765 O.3     1  UNL1       -0.3502
     29 C          61.2358   85.9477    7.3880 C.3     1  UNL1        0.1618
     30 C          62.0171   85.6384    8.6305 C.3     1  UNL1        0.1039
     31 C          63.2781   84.8309    8.5419 C.3     1  UNL1        0.0241
@<TRIPOS>BOND
     1    23    24    1
     2    24    21    1
     3    21    11    1
     4    11    12   ar
     5    12    13   ar
     6    13    14   ar
     7    14    15   ar
     8    15     1    1
     9     1     2   ar
    10     2     3   ar
    11     3     4   ar
    12     4     5   ar
    13     5    25    1
    14    25    26    1
    15    26    27    1
    16    27    28    1
    17    28    29    1
    18    29    30    1
    19    30    31    1
    20     5     6   ar
    21     6     7   ar
    22     7     8   ar
    23     8     9   ar
    24     9    10   ar
    25    15    16   ar
    26    16    17    1
    27    16    18   ar
    28    18    19   ar
    29    19    20   ar
    30    20    11   ar
    31    20    14   ar
    32    10     1   ar
    33     9     4   ar
    34    30    25    1
    35    21    22    1
@<TRIPOS>MOLECULE
*****
 31 35 0 0 0
SMALL
GASTEIGER

@<TRIPOS>ATOM
      1 C          62.7018   90.0638   10.8813 C.ar    1  UNL1        0.0028
      2 C          63.2155   91.1392    9.9705 C.ar    1  UNL1        0.0002
      3 C          64.2779   92.0834   10.4497 C.ar    1  UNL1        0.0029
      4 C          64.8266   91.9523   11.8396 C.ar    1  UNL1        0.0349
      5 C          65.8890   92.8967   12.3187 C.ar    1  UNL1        0.1535
      6 N          66.4377   92.7656   13.7085 N.ar    1  UNL1       -0.1329
      7 N          65.9239   91.6901   14.6193 N.ar    1  UNL1       -0.1452
      8 C          64.8615   90.7458   14.1402 C.ar    1  UNL1        0.1222
      9 C          64.3128   90.8769   12.7503 C.ar    1  UNL1        0.0237
     10 C          63.2504   89.9327   12.2712 C.ar    1  UNL1        0.0018
     11 C          61.6254   85.8641    8.3541 C.ar    1  UNL1        0.1705
     12 N          63.1019   86.1276    8.3595 N.ar    1  UNL1       -0.0621
     13 O          63.3443   87.3920    9.1293 O.2     1  UNL1       -0.3522
     14 C          62.0174   87.9099    9.5996 C.ar    1  UNL1        0.1777
     15 C          61.6393   89.1194   10.4022 C.ar    1  UNL1        0.0333
     16 C          60.1989   89.3846   10.7257 C.ar    1  UNL1       -0.0188
     17 C          59.8208   90.5940   11.5284 C.3     1  UNL1        0.0311
     18 C          59.1364   88.4402   10.2466 C.ar    1  UNL1       -0.0040
     19 C          59.5145   87.2307    9.4440 C.ar    1  UNL1        0.0057
     20 C          60.9551   86.9656    9.1205 C.ar    1  UNL1        0.0717
     21 N          60.9394   84.7029    7.6976 N.pl3   1  UNL1       -0.3155
     22 H          60.4123   84.0722    8.2393 H       1  UNL1        0.1483
     23 C          62.3988   84.2444    5.5975 C.3     1  UNL1        0.0230
     24 C          61.0567   84.5027    6.2156 C.3     1  UNL1        0.0883
     25 N          66.4028   93.9721   11.4079 N.pl3   1  UNL1       -0.2884
     26 C          65.9606   95.3924   11.6004 C.3     1  UNL1        0.1242
     27 C          66.4744   96.4679   10.6895 C.3     1  UNL1        0.1636
     28 O          67.4303   96.1229    9.5863 O.3     1  UNL1       -0.3502
     29 C          67.8725   94.7025    9.3938 C.3     1  UNL1        0.1618
     30 C          67.3587   93.6271   10.3046 C.3     1  UNL1        0.1039
     31 C          67.8009   92.2067   10.1121 C.3     1  UNL1        0.0241
@<TRIPOS>BOND
     1    23    24    1
     2    24    21    1
     3    21    11    1
     4    11    12   ar
     5    12    13   ar
     6    13    14   ar
     7    14    15   ar
     8    15     1    1
     9     1     2   ar
    10     2     3   ar
    11     3     4   ar
    12     4     5   ar
    13     5    25    1
    14    25    26    1
    15    26    27    1
    16    27    28    1
    17    28    29    1
    18    29    30    1
    19    30    31    1
    20     5     6   ar
    21     6     7   ar
    22     7     8   ar
    23     8     9   ar
    24     9    10   ar
    25    15    16   ar
    26    16    17    1
    27    16    18   ar
    28    18    19   ar
    29    19    20   ar
    30    20    11   ar
    31    20    14   ar
    32    10     1   ar
    33     9     4   ar
    34    30    25    1
    35    21    22    1
@<TRIPOS>MOLECULE
*****
 31 35 0 0 0
SMALL
GASTEIGER

@<TRIPOS>ATOM
      1 C          63.5095   86.5191   13.6327 C.ar    1  UNL1        0.0028
      2 C          64.3621   87.2644   14.6163 C.ar    1  UNL1        0.0002
      3 C          64.6310   88.7268   14.4189 C.ar    1  UNL1        0.0029
      4 C          64.0472   89.4439   13.2378 C.ar    1  UNL1        0.0349
      5 C          64.3161   90.9064   13.0404 C.ar    1  UNL1        0.1535
      6 N          63.7323   91.6236   11.8593 N.ar    1  UNL1       -0.1329
      7 N          62.8797   90.8782   10.8757 N.ar    1  UNL1       -0.1452
      8 C          62.6108   89.4158   11.0731 C.ar    1  UNL1        0.1222
      9 C          63.1946   88.6987   12.2542 C.ar    1  UNL1        0.0237
     10 C          62.9257   87.2363   12.4516 C.ar    1  UNL1        0.0018
     11 C          63.3162   81.9532   11.5597 C.ar    1  UNL1        0.1705
     12 N          63.7155   82.9881   10.5501 N.ar    1  UNL1       -0.0621
     13 O          63.7512   84.3194   11.2404 O.2     1  UNL1       -0.3522
     14 C          63.3740   84.1072   12.6766 C.ar    1  UNL1        0.1777
     15 C          63.2406   85.0566   13.8301 C.ar    1  UNL1        0.0333
     16 C          62.8383   84.5437   15.1810 C.ar    1  UNL1       -0.0188
     17 C          62.7049   85.4932   16.3346 C.3     1  UNL1        0.0311
     18 C          62.5694   83.0812   15.3785 C.ar    1  UNL1       -0.0040
     19 C          62.7028   82.1317   14.2249 C.ar    1  UNL1        0.0057
     20 C          63.1051   82.6447   12.8739 C.ar    1  UNL1        0.0717
     21 N          63.1560   80.4844   11.3006 N.pl3   1  UNL1       -0.3155
     22 H          63.2735   79.8394   12.0350 H       1  UNL1        0.1483
     23 C          62.8072   78.5280    9.6271 C.3     1  UNL1        0.0230
     24 C          62.8169   79.9985    9.9226 C.3     1  UNL1        0.0883
     25 N          65.1687   91.6517   14.0240 N.pl3   1  UNL1       -0.2884
     26 C          64.7749   91.7027   15.4705 C.3     1  UNL1        0.1242
     27 C          65.6276   92.4480   16.4541 C.3     1  UNL1        0.1636
     28 O          66.8740   93.1423   15.9913 O.3     1  UNL1       -0.3502
     29 C          67.2679   93.0913   14.5448 C.3     1  UNL1        0.1618
     30 C          66.4153   92.3460   13.5612 C.3     1  UNL1        0.1039
     31 C          66.8091   92.2950   12.1147 C.3     1  UNL1        0.0241
@<TRIPOS>BOND
     1    23    24    1
     2    24    21    1
     3    21    11    1
     4    11    12   ar
     5    12    13   ar
     6    13    14   ar
     7    14    15   ar
     8    15     1    1
     9     1     2   ar
    10     2     3   ar
    11     3     4   ar
    12     4     5   ar
    13     5    25    1
    14    25    26    1
    15    26    27    1
    16    27    28    1
    17    28    29    1
    18    29    30    1
    19    30    31    1
    20     5     6   ar
    21     6     7   ar
    22     7     8   ar
    23     8     9   ar
    24     9    10   ar
    25    15    16   ar
    26    16    17    1
    27    16    18   ar
    28    18    19   ar
    29    19    20   ar
    30    20    11   ar
    31    20    14   ar
    32    10     1   ar
    33     9     4   ar
    34    30    25    1
    35    21    22    1
@<TRIPOS>MOLECULE
*****
 31 35 0 0 0
SMALL
GASTEIGER

@<TRIPOS>ATOM
      1 C          64.0661   89.4889   13.1364 C.ar    1  UNL1        0.0028
      2 C          64.4038   88.2459   13.9050 C.ar    1  UNL1        0.0002
      3 C          63.8120   86.9289   13.4987 C.ar    1  UNL1        0.0029
      4 C          62.8825   86.8549   12.3238 C.ar    1  UNL1        0.0349
      5 C          62.2907   85.5377   11.9175 C.ar    1  UNL1        0.1535
      6 N          61.3612   85.4637   10.7425 N.ar    1  UNL1       -0.1329
      7 N          61.0234   86.7068    9.9739 N.ar    1  UNL1       -0.1452
      8 C          61.6152   88.0238   10.3802 C.ar    1  UNL1        0.1222
      9 C          62.5448   88.0979   11.5552 C.ar    1  UNL1        0.0237
     10 C          63.1366   89.4149   11.9615 C.ar    1  UNL1        0.0018
     11 C          66.1571   93.8043   11.6572 C.ar    1  UNL1        0.1705
     12 N          65.8170   92.9380   10.4810 N.ar    1  UNL1       -0.0621
     13 O          65.1996   91.6733   11.0000 O.2     1  UNL1       -0.3522
     14 C          65.1581   91.7580   12.4970 C.ar    1  UNL1        0.1777
     15 C          64.6579   90.8061   13.5427 C.ar    1  UNL1        0.0333
     16 C          64.7495   91.1712   14.9947 C.ar    1  UNL1       -0.0188
     17 C          64.2494   90.2192   16.0404 C.3     1  UNL1        0.0311
     18 C          65.3414   92.4883   15.4010 C.ar    1  UNL1       -0.0040
     19 C          65.8415   93.4403   14.3552 C.ar    1  UNL1        0.0057
     20 C          65.7499   93.0751   12.9032 C.ar    1  UNL1        0.0717
     21 N          66.7928   95.1616   11.5980 N.pl3   1  UNL1       -0.3155
     22 H          67.4194   95.4429   12.3033 H       1  UNL1        0.1483
     23 C          67.3345   96.0976    9.2357 C.3     1  UNL1        0.0230
     24 C          66.4738   96.0904   10.4641 C.3     1  UNL1        0.0883
     25 N          62.6284   84.2947   12.6861 N.pl3   1  UNL1       -0.2884
     26 C          62.1216   84.1181   14.0868 C.3     1  UNL1        0.1242
     27 C          62.4593   82.8750   14.8554 C.3     1  UNL1        0.1636
     28 O          63.3039   81.8086   14.2234 O.3     1  UNL1       -0.3502
     29 C          63.8108   81.9853   12.8227 C.3     1  UNL1        0.1618
     30 C          63.4730   83.2283   12.0541 C.3     1  UNL1        0.1039
     31 C          63.9799   83.4049   10.6534 C.3     1  UNL1        0.0241
@<TRIPOS>BOND
     1    23    24    1
     2    24    21    1
     3    21    11    1
     4    11    12   ar
     5    12    13   ar
     6    13    14   ar
     7    14    15   ar
     8    15     1    1
     9     1     2   ar
    10     2     3   ar
    11     3     4   ar
    12     4     5   ar
    13     5    25    1
    14    25    26    1
    15    26    27    1
    16    27    28    1
    17    28    29    1
    18    29    30    1
    19    30    31    1
    20     5     6   ar
    21     6     7   ar
    22     7     8   ar
    23     8     9   ar
    24     9    10   ar
    25    15    16   ar
    26    16    17    1
    27    16    18   ar
    28    18    19   ar
    29    19    20   ar
    30    20    11   ar
    31    20    14   ar
    32    10     1   ar
    33     9     4   ar
    34    30    25    1
    35    21    22    1
@<TRIPOS>MOLECULE
*****
 31 35 0 0 0
SMALL
GASTEIGER

@<TRIPOS>ATOM
      1 C          63.9682   89.9624   12.4878 C.ar    1  UNL1        0.0028
      2 C          63.1777   90.0328   11.2149 C.ar    1  UNL1        0.0002
      3 C          62.4600   88.8164   10.7096 C.ar    1  UNL1        0.0029
      4 C          62.5328   87.5297   11.4772 C.ar    1  UNL1        0.0349
      5 C          61.8150   86.3134   10.9718 C.ar    1  UNL1        0.1535
      6 N          61.8877   85.0267   11.7393 N.ar    1  UNL1       -0.1329
      7 N          62.6783   84.9563   13.0122 N.ar    1  UNL1       -0.1452
      8 C          63.3960   86.1727   13.5175 C.ar    1  UNL1        0.1222
      9 C          63.3232   87.4594   12.7500 C.ar    1  UNL1        0.0237
     10 C          64.0410   88.6757   13.2553 C.ar    1  UNL1        0.0018
     11 C          66.2732   94.2718   11.3482 C.ar    1  UNL1        0.1705
     12 N          65.7860   93.5766   10.1116 N.ar    1  UNL1       -0.0621
     13 O          65.1119   92.3038   10.5306 O.2     1  UNL1       -0.3522
     14 C          65.1825   92.2124   12.0262 C.ar    1  UNL1        0.1777
     15 C          64.6860   91.1787   12.9931 C.ar    1  UNL1        0.0333
     16 C          64.9072   91.3614   14.4654 C.ar    1  UNL1       -0.0188
     17 C          64.4107   90.3278   15.4324 C.3     1  UNL1        0.0311
     18 C          65.6250   92.5778   14.9708 C.ar    1  UNL1       -0.0040
     19 C          66.1215   93.6114   14.0038 C.ar    1  UNL1        0.0057
     20 C          65.9003   93.4287   12.5314 C.ar    1  UNL1        0.0717
     21 N          67.0049   95.5804   11.3936 N.pl3   1  UNL1       -0.3155
     22 H          67.8076   95.6763   11.9555 H       1  UNL1        0.1483
     23 C          65.0582   96.8553   10.2382 C.3     1  UNL1        0.0230
     24 C          66.5137   96.7429   10.5828 C.3     1  UNL1        0.0883
     25 N          61.0245   86.3837    9.6990 N.pl3   1  UNL1       -0.2884
     26 C          59.6859   87.0604    9.6839 C.3     1  UNL1        0.1242
     27 C          58.8954   87.1308    8.4109 C.3     1  UNL1        0.1636
     28 O          59.4435   86.5245    7.1532 O.3     1  UNL1       -0.3502
     29 C          60.7822   85.8478    7.1683 C.3     1  UNL1        0.1618
     30 C          61.5726   85.7774    8.4412 C.3     1  UNL1        0.1039
     31 C          62.9112   85.1007    8.4563 C.3     1  UNL1        0.0241
@<TRIPOS>BOND
     1    23    24    1
     2    24    21    1
     3    21    11    1
     4    11    12   ar
     5    12    13   ar
     6    13    14   ar
     7    14    15   ar
     8    15     1    1
     9     1     2   ar
    10     2     3   ar
    11     3     4   ar
    12     4     5   ar
    13     5    25    1
    14    25    26    1
    15    26    27    1
    16    27    28    1
    17    28    29    1
    18    29    30    1
    19    30    31    1
    20     5     6   ar
    21     6     7   ar
    22     7     8   ar
    23     8     9   ar
    24     9    10   ar
    25    15    16   ar
    26    16    17    1
    27    16    18   ar
    28    18    19   ar
    29    19    20   ar
    30    20    11   ar
    31    20    14   ar
    32    10     1   ar
    33     9     4   ar
    34    30    25    1
    35    21    22    1
@<TRIPOS>MOLECULE
*****
 31 35 0 0 0
SMALL
GASTEIGER

@<TRIPOS>ATOM
      1 C          63.0087   86.0139   11.9415 C.ar    1  UNL1        0.0028
      2 C          63.7872   86.6418   13.0593 C.ar    1  UNL1        0.0002
      3 C          63.8521   88.1354   13.1814 C.ar    1  UNL1        0.0029
      4 C          63.1385   89.0011   12.1857 C.ar    1  UNL1        0.0349
      5 C          63.2034   90.4947   12.3079 C.ar    1  UNL1        0.1535
      6 N          62.4898   91.3604   11.3122 N.ar    1  UNL1       -0.1329
      7 N          61.7112   90.7323   10.1943 N.ar    1  UNL1       -0.1452
      8 C          61.6463   89.2388   10.0722 C.ar    1  UNL1        0.1222
      9 C          62.3600   88.3731   11.0679 C.ar    1  UNL1        0.0237
     10 C          62.2950   86.8795   10.9458 C.ar    1  UNL1        0.0018
     11 C          62.2068   81.6288   14.2460 C.ar    1  UNL1        0.1705
     12 N          62.0590   82.7758   15.2012 N.ar    1  UNL1       -0.0621
     13 O          62.3119   84.0454   14.4436 O.2     1  UNL1       -0.3522
     14 C          62.6160   83.6831   13.0201 C.ar    1  UNL1        0.1777
     15 C          62.9437   84.5202   11.8194 C.ar    1  UNL1        0.0333
     16 C          63.2064   83.8638   10.4965 C.ar    1  UNL1       -0.0188
     17 C          63.5341   84.7009    9.2957 C.3     1  UNL1        0.0311
     18 C          63.1415   82.3701   10.3744 C.ar    1  UNL1       -0.0040
     19 C          62.8138   81.5330   11.5751 C.ar    1  UNL1        0.0057
     20 C          62.5511   82.1895   12.8980 C.ar    1  UNL1        0.0717
     21 N          62.0397   80.1761   14.5801 N.pl3   1  UNL1       -0.3155
     22 H          62.7710   79.6848   15.0195 H       1  UNL1        0.1483
     23 C          59.4665   80.2339   14.2258 C.3     1  UNL1        0.0230
     24 C          60.7584   79.4719   14.2447 C.3     1  UNL1        0.0883
     25 N          63.9820   91.1227   13.4257 N.pl3   1  UNL1       -0.2884
     26 C          63.5941   90.8589   14.8505 C.3     1  UNL1        0.1242
     27 C          64.3727   91.4869   15.9683 C.3     1  UNL1        0.1636
     28 O          65.5391   92.3786   15.6613 O.3     1  UNL1       -0.3502
     29 C          65.9270   92.6424   14.2366 C.3     1  UNL1        0.1618
     30 C          65.1485   92.0144   13.1188 C.3     1  UNL1        0.1039
     31 C          65.5363   92.2782   11.6940 C.3     1  UNL1        0.0241
@<TRIPOS>BOND
     1    23    24    1
     2    24    21    1
     3    21    11    1
     4    11    12   ar
     5    12    13   ar
     6    13    14   ar
     7    14    15   ar
     8    15     1    1
     9     1     2   ar
    10     2     3   ar
    11     3     4   ar
    12     4     5   ar
    13     5    25    1
    14    25    26    1
    15    26    27    1
    16    27    28    1
    17    28    29    1
    18    29    30    1
    19    30    31    1
    20     5     6   ar
    21     6     7   ar
    22     7     8   ar
    23     8     9   ar
    24     9    10   ar
    25    15    16   ar
    26    16    17    1
    27    16    18   ar
    28    18    19   ar
    29    19    20   ar
    30    20    11   ar
    31    20    14   ar
    32    10     1   ar
    33     9     4   ar
    34    30    25    1
    35    21    22    1
