@<TRIPOS>MOLECULE
*****
 34 38 0 0 0
SMALL
GASTEIGER

@<TRIPOS>ATOM
      1 C          63.1293   88.9618   11.7845 C.ar    1  UNL1        0.1074
      2 C          62.3673   89.6960   10.7214 C.ar    1  UNL1        0.0588
      3 S          62.8326   91.1220   10.7187 S.2     1  UNL1       -0.0508
      4 C          63.8822   91.2691   11.7802 C.ar    1  UNL1        0.1646
      5 N          64.0655   89.9340   12.4389 N.ar    1  UNL1       -0.2224
      6 C          63.4535   85.5210   13.7353 C.ar    1  UNL1        0.2416
      7 N          63.6017   86.9725   13.3876 N.ar    1  UNL1       -0.2089
      8 C          62.9811   87.5102   12.1323 C.ar    1  UNL1        0.1026
      9 C          62.2122   86.5963   11.2247 C.ar    1  UNL1        0.0224
     10 C          62.0640   85.1447   11.5724 C.ar    1  UNL1        0.0239
     11 C          62.6846   84.6070   12.8277 C.ar    1  UNL1        0.1189
     12 N          62.5364   83.1554   13.1754 N.ar    1  UNL1       -0.2826
     13 C          62.1535   82.6049   14.5171 C.ar    1  UNL1        0.1826
     14 N          62.1255   81.1087   14.4134 N.ar    1  UNL1       -0.2280
     15 C          62.4910   80.7346   13.0076 C.ar    1  UNL1        0.0786
     16 C          62.5860   79.3404   12.4625 C.3     1  UNL1        0.0538
     17 C          62.7450   81.9995   12.2425 C.ar    1  UNL1        0.0963
     18 C          63.7625   85.6188   16.3130 C.3     1  UNL1        0.2543
     19 O          64.0741   84.9833   14.9906 O.3     1  UNL1       -0.4551
     20 N          64.6191   92.5299   12.1229 N.pl3   1  UNL1       -0.2786
     21 H          64.1773   93.4031   12.0150 H       1  UNL1        0.1555
     22 C          66.0291   92.4603   12.6299 C.ar    1  UNL1        0.1278
     23 C          66.4503   92.4781   14.0694 C.ar    1  UNL1        0.0244
     24 C          67.9469   92.3895   14.1157 C.ar    1  UNL1        0.0773
     25 N          68.4508   92.3170   12.7047 N.ar    1  UNL1       -0.1726
     26 N          67.2655   92.3607   11.7864 N.ar    1  UNL1       -0.2295
     27 C          68.3681   92.4074   15.5552 C.3     1  UNL1        0.0477
     28 C          67.1317   92.5070   16.3987 C.3     1  UNL1        0.0112
     29 C          65.9464   92.5507   15.4804 C.3     1  UNL1        0.0308
     30 C          67.3089   92.3132   10.2878 C.3     1  UNL1        0.2315
     31 C          67.7119   93.5310    9.5102 C.3     1  UNL1        0.4200
     32 F          68.1147   94.7488    8.7325 F       1  UNL1       -0.1679
     33 F          69.0904   92.9653    9.3386 F       1  UNL1       -0.1679
     34 F          66.3333   94.0967    9.6818 F       1  UNL1       -0.1679
@<TRIPOS>BOND
     1    18    19    1
     2    19     6    1
     3     6     7   ar
     4     7     8   ar
     5     8     1    1
     6     1     2   ar
     7     2     3   ar
     8     3     4   ar
     9     4    20    1
    10    20    22    1
    11    22    23   ar
    12    23    24   ar
    13    24    25   ar
    14    25    26   ar
    15    26    30    1
    16    30    31    1
    17    31    32    1
    18    31    33    1
    19    31    34    1
    20    24    27    1
    21    27    28    1
    22    28    29    1
    23     4     5   ar
    24     8     9   ar
    25     9    10   ar
    26    10    11   ar
    27    11    12    1
    28    12    13   ar
    29    13    14   ar
    30    14    15   ar
    31    15    16    1
    32    15    17   ar
    33    11     6   ar
    34    17    12   ar
    35     5     1   ar
    36    26    22   ar
    37    29    23    1
    38    20    21    1
@<TRIPOS>MOLECULE
*****
 34 38 0 0 0
SMALL
GASTEIGER

@<TRIPOS>ATOM
      1 C          64.2236   89.5375   14.3208 C.ar    1  UNL1        0.1074
      2 C          63.6685   89.5315   15.7143 C.ar    1  UNL1        0.0588
      3 S          63.3204   88.1161   16.0684 S.2     1  UNL1       -0.0508
      4 C          63.6604   87.2473   14.8938 C.ar    1  UNL1        0.1646
      5 N          64.2186   88.1258   13.8138 N.ar    1  UNL1       -0.2224
      6 C          66.2272   92.8394   13.4081 C.ar    1  UNL1        0.2416
      7 N          65.7507   91.6334   14.1621 N.ar    1  UNL1       -0.2089
      8 C          64.7001   90.7435   13.5668 C.ar    1  UNL1        0.1026
      9 C          64.1260   91.0596   12.2175 C.ar    1  UNL1        0.0224
     10 C          64.6025   92.2656   11.4635 C.ar    1  UNL1        0.0239
     11 C          65.6531   93.1555   12.0587 C.ar    1  UNL1        0.1189
     12 N          66.1296   94.3615   11.3047 N.ar    1  UNL1       -0.2826
     13 C          66.1577   95.7696   11.8208 C.ar    1  UNL1        0.1826
     14 N          66.7071   96.6494   10.7373 N.ar    1  UNL1       -0.2280
     15 C          67.0186   95.7850    9.5516 C.ar    1  UNL1        0.0786
     16 C          67.5872   96.2526    8.2446 C.3     1  UNL1        0.0538
     17 C          66.6617   94.3711    9.9023 C.ar    1  UNL1        0.0963
     18 C          67.8571   93.4091   15.3493 C.3     1  UNL1        0.2543
     19 O          67.2778   93.7293   14.0033 O.3     1  UNL1       -0.4551
     20 N          63.4748   85.7610   14.8134 N.pl3   1  UNL1       -0.2786
     21 H          63.6016   85.2049   15.6158 H       1  UNL1        0.1555
     22 C          63.0958   85.1219   13.5103 C.ar    1  UNL1        0.1278
     23 C          62.7296   85.8442   12.2477 C.ar    1  UNL1        0.0244
     24 C          62.4240   84.8171   11.1981 C.ar    1  UNL1        0.0773
     25 N          62.6013   83.4600   11.8120 N.ar    1  UNL1       -0.1726
     26 N          63.0165   83.6484   13.2411 N.ar    1  UNL1       -0.2295
     27 C          62.0577   85.5393    9.9354 C.3     1  UNL1        0.0477
     28 C          62.1370   87.0128   10.2047 C.3     1  UNL1        0.0112
     29 C          62.5522   87.2012   11.6337 C.3     1  UNL1        0.0308
     30 C          63.3023   82.5553   14.2276 C.3     1  UNL1        0.2315
     31 C          62.8924   81.1446   13.9237 C.3     1  UNL1        0.4200
     32 F          62.4826   79.7341   13.6198 F       1  UNL1       -0.1679
     33 F          64.2172   80.9020   13.2635 F       1  UNL1       -0.1679
     34 F          61.5676   81.3873   14.5839 F       1  UNL1       -0.1679
@<TRIPOS>BOND
     1    18    19    1
     2    19     6    1
     3     6     7   ar
     4     7     8   ar
     5     8     1    1
     6     1     2   ar
     7     2     3   ar
     8     3     4   ar
     9     4    20    1
    10    20    22    1
    11    22    23   ar
    12    23    24   ar
    13    24    25   ar
    14    25    26   ar
    15    26    30    1
    16    30    31    1
    17    31    32    1
    18    31    33    1
    19    31    34    1
    20    24    27    1
    21    27    28    1
    22    28    29    1
    23     4     5   ar
    24     8     9   ar
    25     9    10   ar
    26    10    11   ar
    27    11    12    1
    28    12    13   ar
    29    13    14   ar
    30    14    15   ar
    31    15    16    1
    32    15    17   ar
    33    11     6   ar
    34    17    12   ar
    35     5     1   ar
    36    26    22   ar
    37    29    23    1
    38    20    21    1
@<TRIPOS>MOLECULE
*****
 34 38 0 0 0
SMALL
GASTEIGER

@<TRIPOS>ATOM
      1 C          62.5612   89.1675   12.0354 C.ar    1  UNL1        0.1074
      2 C          61.2225   89.6738   11.5868 C.ar    1  UNL1        0.0588
      3 S          60.5106   88.5502   10.8933 S.2     1  UNL1       -0.0508
      4 C          61.4094   87.3496   10.9134 C.ar    1  UNL1        0.1646
      5 N          62.6768   87.7310   11.6192 N.ar    1  UNL1       -0.2224
      6 C          65.1581   92.0333   12.9261 C.ar    1  UNL1        0.2416
      7 N          64.1175   91.2421   12.1904 N.ar    1  UNL1       -0.2089
      8 C          63.6018   89.9588   12.7710 C.ar    1  UNL1        0.1026
      9 C          64.1266   89.4667   14.0873 C.ar    1  UNL1        0.0224
     10 C          65.1672   90.2579   14.8229 C.ar    1  UNL1        0.0239
     11 C          65.6829   91.5413   14.2424 C.ar    1  UNL1        0.1189
     12 N          66.7235   92.3325   14.9780 N.ar    1  UNL1       -0.2826
     13 C          66.5395   93.0166   16.3002 C.ar    1  UNL1        0.1826
     14 N          67.8330   93.6854   16.6599 N.ar    1  UNL1       -0.2280
     15 C          68.8164   93.4148   15.5601 C.ar    1  UNL1        0.0786
     16 C          70.2363   93.8958   15.5087 C.3     1  UNL1        0.0538
     17 C          68.1306   92.5786   14.5206 C.ar    1  UNL1        0.0963
     18 C          66.3699   93.3124   11.0168 C.3     1  UNL1        0.2543
     19 O          65.6738   93.3167   12.3455 O.3     1  UNL1       -0.4551
     20 N          61.0960   86.0036   10.3301 N.pl3   1  UNL1       -0.2786
     21 H          60.1760   85.7897   10.0522 H       1  UNL1        0.1555
     22 C          62.1841   84.9837   10.1701 C.ar    1  UNL1        0.1278
     23 C          62.7165   84.0859   11.2475 C.ar    1  UNL1        0.0244
     24 C          63.7924   83.2298   10.6479 C.ar    1  UNL1        0.0773
     25 N          63.9250   83.5984    9.2000 N.ar    1  UNL1       -0.1726
     26 N          62.9311   84.6823    8.9046 N.ar    1  UNL1       -0.2295
     27 C          64.3247   82.3321   11.7253 C.3     1  UNL1        0.0477
     28 C          63.5778   82.6334   12.9907 C.3     1  UNL1        0.0112
     29 C          62.5838   83.7174   12.6954 C.3     1  UNL1        0.0308
     30 C          62.7209   85.3480    7.5770 C.3     1  UNL1        0.2315
     31 C          61.8892   84.6767    6.5246 C.3     1  UNL1        0.4200
     32 F          61.0574   84.0054    5.4722 F       1  UNL1       -0.1679
     33 F          63.1371   84.2580    5.8054 F       1  UNL1       -0.1679
     34 F          60.6412   85.0954    7.2438 F       1  UNL1       -0.1679
@<TRIPOS>BOND
     1    18    19    1
     2    19     6    1
     3     6     7   ar
     4     7     8   ar
     5     8     1    1
     6     1     2   ar
     7     2     3   ar
     8     3     4   ar
     9     4    20    1
    10    20    22    1
    11    22    23   ar
    12    23    24   ar
    13    24    25   ar
    14    25    26   ar
    15    26    30    1
    16    30    31    1
    17    31    32    1
    18    31    33    1
    19    31    34    1
    20    24    27    1
    21    27    28    1
    22    28    29    1
    23     4     5   ar
    24     8     9   ar
    25     9    10   ar
    26    10    11   ar
    27    11    12    1
    28    12    13   ar
    29    13    14   ar
    30    14    15   ar
    31    15    16    1
    32    15    17   ar
    33    11     6   ar
    34    17    12   ar
    35     5     1   ar
    36    26    22   ar
    37    29    23    1
    38    20    21    1
@<TRIPOS>MOLECULE
*****
 34 38 0 0 0
SMALL
GASTEIGER

@<TRIPOS>ATOM
      1 C          63.6302   87.5237   15.0951 C.ar    1  UNL1        0.1074
      2 C          63.1033   87.9761   16.4247 C.ar    1  UNL1        0.0588
      3 S          63.4820   89.4159   16.6077 S.2     1  UNL1       -0.0508
      4 C          64.2429   89.8533   15.3914 C.ar    1  UNL1        0.1646
      5 N          64.3345   88.6839   14.4565 N.ar    1  UNL1       -0.2224
      6 C          63.0049   84.6194   12.4638 C.ar    1  UNL1        0.2416
      7 N          63.1558   85.9912   13.0515 N.ar    1  UNL1       -0.2089
      8 C          63.4793   86.1519   14.5074 C.ar    1  UNL1        0.1026
      9 C          63.6519   84.9408   15.3755 C.ar    1  UNL1        0.0224
     10 C          63.5010   83.5691   14.7878 C.ar    1  UNL1        0.0239
     11 C          63.1775   83.4083   13.3319 C.ar    1  UNL1        0.1189
     12 N          63.0266   82.0365   12.7442 N.ar    1  UNL1       -0.2826
     13 C          62.7213   80.7802   13.5047 C.ar    1  UNL1        0.1826
     14 N          62.6605   79.6475   12.5232 N.ar    1  UNL1       -0.2280
     15 C          62.9282   80.2038   11.1562 C.ar    1  UNL1        0.0786
     16 C          62.9635   79.4209    9.8771 C.3     1  UNL1        0.0538
     17 C          63.1545   81.6802   11.2927 C.ar    1  UNL1        0.0963
     18 C          62.1331   85.6174   10.2291 C.3     1  UNL1        0.2543
     19 O          62.6815   84.4587   11.0079 O.3     1  UNL1       -0.4551
     20 N          64.8123   91.2203   15.1518 N.pl3   1  UNL1       -0.2786
     21 H          65.0888   91.7788   15.9139 H       1  UNL1        0.1555
     22 C          64.9603   91.7362   13.7512 C.ar    1  UNL1        0.1278
     23 C          64.1465   91.3120   12.5647 C.ar    1  UNL1        0.0244
     24 C          64.6313   92.0805   11.3712 C.ar    1  UNL1        0.0773
     25 N          65.7448   92.9798   11.8201 N.ar    1  UNL1       -0.1726
     26 N          65.9482   92.7670   13.2910 N.ar    1  UNL1       -0.2295
     27 C          63.8175   91.6563   10.1848 C.3     1  UNL1        0.0477
     28 C          62.8297   90.6255   10.6450 C.3     1  UNL1        0.0112
     29 C          63.0330   90.4127   12.1158 C.3     1  UNL1        0.0308
     30 C          66.9613   93.4628   14.1507 C.3     1  UNL1        0.2315
     31 C          67.8510   92.6645   15.0570 C.3     1  UNL1        0.4200
     32 F          68.7406   91.8662   15.9633 F       1  UNL1       -0.1679
     33 F          68.4024   91.9316   13.8701 F       1  UNL1       -0.1679
     34 F          67.2996   93.3974   16.2439 F       1  UNL1       -0.1679
@<TRIPOS>BOND
     1    18    19    1
     2    19     6    1
     3     6     7   ar
     4     7     8   ar
     5     8     1    1
     6     1     2   ar
     7     2     3   ar
     8     3     4   ar
     9     4    20    1
    10    20    22    1
    11    22    23   ar
    12    23    24   ar
    13    24    25   ar
    14    25    26   ar
    15    26    30    1
    16    30    31    1
    17    31    32    1
    18    31    33    1
    19    31    34    1
    20    24    27    1
    21    27    28    1
    22    28    29    1
    23     4     5   ar
    24     8     9   ar
    25     9    10   ar
    26    10    11   ar
    27    11    12    1
    28    12    13   ar
    29    13    14   ar
    30    14    15   ar
    31    15    16    1
    32    15    17   ar
    33    11     6   ar
    34    17    12   ar
    35     5     1   ar
    36    26    22   ar
    37    29    23    1
    38    20    21    1
@<TRIPOS>MOLECULE
*****
 34 38 0 0 0
SMALL
GASTEIGER

@<TRIPOS>ATOM
      1 C          62.8549   88.9313   11.6967 C.ar    1  UNL1        0.1074
      2 C          61.8640   89.6860   10.8610 C.ar    1  UNL1        0.0588
      3 S          62.3233   91.1111   10.7714 S.2     1  UNL1       -0.0508
      4 C          63.5981   91.2372   11.5517 C.ar    1  UNL1        0.1646
      5 N          63.9267   89.8900   12.1235 N.ar    1  UNL1       -0.2224
      6 C          63.4490   85.4968   13.5943 C.ar    1  UNL1        0.2416
      7 N          63.5177   86.9543   13.2465 N.ar    1  UNL1       -0.2089
      8 C          62.7862   87.4738   12.0444 C.ar    1  UNL1        0.1026
      9 C          61.9859   86.5358   11.1901 C.ar    1  UNL1        0.0224
     10 C          61.9172   85.0783   11.5379 C.ar    1  UNL1        0.0239
     11 C          62.6487   84.5588   12.7399 C.ar    1  UNL1        0.1189
     12 N          62.5800   83.1013   13.0877 N.ar    1  UNL1       -0.2826
     13 C          62.3855   82.5308   14.4613 C.ar    1  UNL1        0.1826
     14 N          62.3790   81.0353   14.3454 N.ar    1  UNL1       -0.2280
     15 C          62.5695   80.6815   12.9002 C.ar    1  UNL1        0.0786
     16 C          62.6259   79.2944   12.3321 C.3     1  UNL1        0.0538
     17 C          62.6937   81.9583   12.1230 C.ar    1  UNL1        0.0963
     18 C          63.9349   85.5863   16.1449 C.3     1  UNL1        0.2543
     19 O          64.1805   84.9772   14.7963 O.3     1  UNL1       -0.4551
     20 N          64.4031   92.4905   11.7290 N.pl3   1  UNL1       -0.2786
     21 H          63.9481   93.3514   11.8741 H       1  UNL1        0.1555
     22 C          65.9013   92.4320   11.6853 C.ar    1  UNL1        0.1278
     23 C          66.7663   92.8412   10.5301 C.ar    1  UNL1        0.0244
     24 C          68.1972   92.6161   10.9199 C.ar    1  UNL1        0.0773
     25 N          68.2166   92.0679   12.3160 N.ar    1  UNL1       -0.1726
     26 N          66.7977   91.9540   12.7891 N.ar    1  UNL1       -0.2295
     27 C          69.0622   93.0253    9.7647 C.3     1  UNL1        0.0477
     28 C          68.1658   93.5032    8.6610 C.3     1  UNL1        0.0112
     29 C          66.7469   93.3894    9.1340 C.3     1  UNL1        0.0308
     30 C          66.3531   91.4507   14.1303 C.3     1  UNL1        0.2315
     31 C          66.9113   92.0594   15.3825 C.3     1  UNL1        0.4200
     32 F          67.4695   92.6679   16.6347 F       1  UNL1       -0.1679
     33 F          65.8930   93.1577   15.3026 F       1  UNL1       -0.1679
     34 F          67.9297   90.9610   15.4624 F       1  UNL1       -0.1679
@<TRIPOS>BOND
     1    18    19    1
     2    19     6    1
     3     6     7   ar
     4     7     8   ar
     5     8     1    1
     6     1     2   ar
     7     2     3   ar
     8     3     4   ar
     9     4    20    1
    10    20    22    1
    11    22    23   ar
    12    23    24   ar
    13    24    25   ar
    14    25    26   ar
    15    26    30    1
    16    30    31    1
    17    31    32    1
    18    31    33    1
    19    31    34    1
    20    24    27    1
    21    27    28    1
    22    28    29    1
    23     4     5   ar
    24     8     9   ar
    25     9    10   ar
    26    10    11   ar
    27    11    12    1
    28    12    13   ar
    29    13    14   ar
    30    14    15   ar
    31    15    16    1
    32    15    17   ar
    33    11     6   ar
    34    17    12   ar
    35     5     1   ar
    36    26    22   ar
    37    29    23    1
    38    20    21    1
@<TRIPOS>MOLECULE
*****
 34 38 0 0 0
SMALL
GASTEIGER

@<TRIPOS>ATOM
      1 C          59.8846   91.0431    4.8352 C.ar    1  UNL1        0.1074
      2 C          58.4556   91.4063    5.1110 C.ar    1  UNL1        0.0588
      3 S          57.9219   90.4454    6.1317 S.2     1  UNL1       -0.0508
      4 C          59.0211   89.4885    6.4868 C.ar    1  UNL1        0.1646
      5 N          60.2340   89.8579    5.6856 N.ar    1  UNL1       -0.2224
      6 C          61.2347   93.6327    2.1480 C.ar    1  UNL1        0.2416
      7 N          60.3164   92.9334    3.1059 N.ar    1  UNL1       -0.2089
      8 C          60.8029   91.7425    3.8774 C.ar    1  UNL1        0.1026
      9 C          62.2079   91.2510    3.6909 C.ar    1  UNL1        0.0224
     10 C          63.1262   91.9504    2.7330 C.ar    1  UNL1        0.0239
     11 C          62.6397   93.1412    1.9616 C.ar    1  UNL1        0.1189
     12 N          63.5580   93.8406    1.0037 N.ar    1  UNL1       -0.2826
     13 C          64.9107   94.4011    1.3292 C.ar    1  UNL1        0.1826
     14 N          65.4736   95.0091    0.0788 N.ar    1  UNL1       -0.2280
     15 C          64.4687   94.8244   -1.0194 C.ar    1  UNL1        0.0786
     16 C          64.6210   95.2817   -2.4400 C.3     1  UNL1        0.0538
     17 C          63.2849   94.1023   -0.4478 C.ar    1  UNL1        0.0963
     18 C          59.5508   94.6994    0.4818 C.3     1  UNL1        0.2543
     19 O          60.7482   94.8236    1.3766 O.3     1  UNL1       -0.4551
     20 N          58.9242   88.3601    7.4705 N.pl3   1  UNL1       -0.2786
     21 H          58.0601   87.9142    7.6245 H       1  UNL1        0.1555
     22 C          60.1439   87.9114    8.2194 C.ar    1  UNL1        0.1278
     23 C          60.9815   86.7085    7.9006 C.ar    1  UNL1        0.0244
     24 C          62.0954   86.6404    8.9028 C.ar    1  UNL1        0.0773
     25 N          61.9463   87.8011    9.8412 N.ar    1  UNL1       -0.1726
     26 N          60.7402   88.5867    9.4189 N.ar    1  UNL1       -0.2295
     27 C          62.9330   85.4376    8.5840 C.3     1  UNL1        0.0477
     28 C          62.3367   84.7623    7.3846 C.3     1  UNL1        0.0112
     29 C          61.1306   85.5478    6.9622 C.3     1  UNL1        0.0308
     30 C          60.2215   89.8292   10.0798 C.3     1  UNL1        0.2315
     31 C          59.4510   89.7304   11.3631 C.3     1  UNL1        0.4200
     32 F          58.6806   89.6315   12.6463 F       1  UNL1       -0.1679
     33 F          59.2858   91.2211   11.3786 F       1  UNL1       -0.1679
     34 F          59.6163   88.2396   11.3475 F       1  UNL1       -0.1679
@<TRIPOS>BOND
     1    18    19    1
     2    19     6    1
     3     6     7   ar
     4     7     8   ar
     5     8     1    1
     6     1     2   ar
     7     2     3   ar
     8     3     4   ar
     9     4    20    1
    10    20    22    1
    11    22    23   ar
    12    23    24   ar
    13    24    25   ar
    14    25    26   ar
    15    26    30    1
    16    30    31    1
    17    31    32    1
    18    31    33    1
    19    31    34    1
    20    24    27    1
    21    27    28    1
    22    28    29    1
    23     4     5   ar
    24     8     9   ar
    25     9    10   ar
    26    10    11   ar
    27    11    12    1
    28    12    13   ar
    29    13    14   ar
    30    14    15   ar
    31    15    16    1
    32    15    17   ar
    33    11     6   ar
    34    17    12   ar
    35     5     1   ar
    36    26    22   ar
    37    29    23    1
    38    20    21    1
@<TRIPOS>MOLECULE
*****
 34 38 0 0 0
SMALL
GASTEIGER

@<TRIPOS>ATOM
      1 C          59.8729   91.1457    4.7661 C.ar    1  UNL1        0.1074
      2 C          58.4400   91.4823    5.0548 C.ar    1  UNL1        0.0588
      3 S          57.9225   90.4889    6.0524 S.2     1  UNL1       -0.0508
      4 C          59.0355   89.5383    6.3802 C.ar    1  UNL1        0.1646
      5 N          60.2409   89.9442    5.5852 N.ar    1  UNL1       -0.2224
      6 C          61.1773   93.8155    2.1354 C.ar    1  UNL1        0.2416
      7 N          60.2714   93.0798    3.0778 N.ar    1  UNL1       -0.2089
      8 C          60.7788   91.8814    3.8237 C.ar    1  UNL1        0.1026
      9 C          62.1921   91.4186    3.6272 C.ar    1  UNL1        0.0224
     10 C          63.0980   92.1543    2.6848 C.ar    1  UNL1        0.0239
     11 C          62.5906   93.3527    1.9389 C.ar    1  UNL1        0.1189
     12 N          63.4965   94.0884    0.9965 N.ar    1  UNL1       -0.2826
     13 C          64.7319   94.8501    1.3753 C.ar    1  UNL1        0.1826
     14 N          65.3249   95.4240    0.1227 N.ar    1  UNL1       -0.2280
     15 C          64.4560   95.0170   -1.0302 C.ar    1  UNL1        0.0786
     16 C          64.6781   95.3730   -2.4704 C.3     1  UNL1        0.0538
     17 C          63.3260   94.1916   -0.4902 C.ar    1  UNL1        0.0963
     18 C          59.5398   94.8671    0.4142 C.3     1  UNL1        0.2543
     19 O          60.6699   95.0139    1.3895 O.3     1  UNL1       -0.4551
     20 N          58.9569   88.3842    7.3353 N.pl3   1  UNL1       -0.2786
     21 H          58.1487   87.8227    7.3634 H       1  UNL1        0.1555
     22 C          60.1095   88.0859    8.2476 C.ar    1  UNL1        0.1278
     23 C          60.6896   89.0185    9.2693 C.ar    1  UNL1        0.0244
     24 C          61.8231   88.3116    9.9516 C.ar    1  UNL1        0.0773
     25 N          61.9436   86.9422    9.3516 N.ar    1  UNL1       -0.1726
     26 N          60.8846   86.8026    8.2984 N.ar    1  UNL1       -0.2295
     27 C          62.4032   89.2442   10.9732 C.3     1  UNL1        0.0477
     28 C          61.6282   90.5275   10.9224 C.3     1  UNL1        0.0112
     29 C          60.5691   90.3880    9.8693 C.3     1  UNL1        0.0308
     30 C          60.6430   85.5924    7.4459 C.3     1  UNL1        0.2315
     31 C          61.7888   84.9341    6.7360 C.3     1  UNL1        0.4200
     32 F          62.9345   84.2759    6.0260 F       1  UNL1       -0.1679
     33 F          62.7544   85.6333    7.6462 F       1  UNL1       -0.1679
     34 F          60.8230   84.2349    5.8258 F       1  UNL1       -0.1679
@<TRIPOS>BOND
     1    18    19    1
     2    19     6    1
     3     6     7   ar
     4     7     8   ar
     5     8     1    1
     6     1     2   ar
     7     2     3   ar
     8     3     4   ar
     9     4    20    1
    10    20    22    1
    11    22    23   ar
    12    23    24   ar
    13    24    25   ar
    14    25    26   ar
    15    26    30    1
    16    30    31    1
    17    31    32    1
    18    31    33    1
    19    31    34    1
    20    24    27    1
    21    27    28    1
    22    28    29    1
    23     4     5   ar
    24     8     9   ar
    25     9    10   ar
    26    10    11   ar
    27    11    12    1
    28    12    13   ar
    29    13    14   ar
    30    14    15   ar
    31    15    16    1
    32    15    17   ar
    33    11     6   ar
    34    17    12   ar
    35     5     1   ar
    36    26    22   ar
    37    29    23    1
    38    20    21    1
@<TRIPOS>MOLECULE
*****
 34 38 0 0 0
SMALL
GASTEIGER

@<TRIPOS>ATOM
      1 C          63.0918   89.0918   11.9482 C.ar    1  UNL1        0.1074
      2 C          62.0751   89.9845   11.3007 C.ar    1  UNL1        0.0588
      3 S          62.5208   91.4048   11.4852 S.2     1  UNL1       -0.0508
      4 C          63.8131   91.3899   12.2467 C.ar    1  UNL1        0.1646
      5 N          64.1659   89.9604   12.5328 N.ar    1  UNL1       -0.2224
      6 C          62.5446   85.3163   10.8545 C.ar    1  UNL1        0.2416
      7 N          62.5935   86.8145   10.8011 N.ar    1  UNL1       -0.2089
      8 C          63.0430   87.5936   12.0016 C.ar    1  UNL1        0.1026
      9 C          63.4437   86.8743   13.2555 C.ar    1  UNL1        0.0224
     10 C          63.3949   85.3761   13.3089 C.ar    1  UNL1        0.0239
     11 C          62.9454   84.5970   12.1084 C.ar    1  UNL1        0.1189
     12 N          62.8965   83.0988   12.1619 N.ar    1  UNL1       -0.2826
     13 C          63.4204   82.1617   11.1143 C.ar    1  UNL1        0.1826
     14 N          63.1629   80.7584   11.5773 N.ar    1  UNL1       -0.2280
     15 C          62.4799   80.8282   12.9109 C.ar    1  UNL1        0.0786
     16 C          62.0389   79.6571   13.7381 C.3     1  UNL1        0.0538
     17 C          62.3153   82.2746   13.2722 C.ar    1  UNL1        0.0963
     18 C          62.7140   84.8017    8.3136 C.3     1  UNL1        0.2543
     19 O          62.0951   84.5373    9.6541 O.3     1  UNL1       -0.4551
     20 N          64.6122   92.5932   12.6511 N.pl3   1  UNL1       -0.2786
     21 H          64.1807   93.4767   12.7007 H       1  UNL1        0.1555
     22 C          66.0687   92.4504   12.9799 C.ar    1  UNL1        0.1278
     23 C          66.6647   92.4375   14.3564 C.ar    1  UNL1        0.0244
     24 C          68.1493   92.2745   14.2172 C.ar    1  UNL1        0.0773
     25 N          68.4709   92.1866   12.7547 N.ar    1  UNL1       -0.1726
     26 N          67.1850   92.2953   11.9899 N.ar    1  UNL1       -0.2295
     27 C          68.7453   92.2616   15.5936 C.3     1  UNL1        0.0477
     28 C          67.6291   92.4167   16.5835 C.3     1  UNL1        0.0112
     29 C          66.3432   92.5254   15.8188 C.3     1  UNL1        0.0308
     30 C          67.0407   92.2558   10.4975 C.3     1  UNL1        0.2315
     31 C          67.6087   93.3627    9.6595 C.3     1  UNL1        0.4200
     32 F          68.1767   94.4696    8.8216 F       1  UNL1       -0.1679
     33 F          68.2264   92.3504    8.7411 F       1  UNL1       -0.1679
     34 F          66.9910   94.3750   10.5780 F       1  UNL1       -0.1679
@<TRIPOS>BOND
     1    18    19    1
     2    19     6    1
     3     6     7   ar
     4     7     8   ar
     5     8     1    1
     6     1     2   ar
     7     2     3   ar
     8     3     4   ar
     9     4    20    1
    10    20    22    1
    11    22    23   ar
    12    23    24   ar
    13    24    25   ar
    14    25    26   ar
    15    26    30    1
    16    30    31    1
    17    31    32    1
    18    31    33    1
    19    31    34    1
    20    24    27    1
    21    27    28    1
    22    28    29    1
    23     4     5   ar
    24     8     9   ar
    25     9    10   ar
    26    10    11   ar
    27    11    12    1
    28    12    13   ar
    29    13    14   ar
    30    14    15   ar
    31    15    16    1
    32    15    17   ar
    33    11     6   ar
    34    17    12   ar
    35     5     1   ar
    36    26    22   ar
    37    29    23    1
    38    20    21    1
@<TRIPOS>MOLECULE
*****
 34 38 0 0 0
SMALL
GASTEIGER

@<TRIPOS>ATOM
      1 C          62.2501   89.5754   12.0442 C.ar    1  UNL1        0.1074
      2 C          60.9477   90.1876   11.6213 C.ar    1  UNL1        0.0588
      3 S          60.1444   89.1312   10.9222 S.2     1  UNL1       -0.0508
      4 C          60.9504   87.8662   10.9130 C.ar    1  UNL1        0.1646
      5 N          62.2518   88.1407   11.6064 N.ar    1  UNL1       -0.2224
      6 C          65.1615   92.1413   12.8748 C.ar    1  UNL1        0.2416
      7 N          64.0550   91.4417   12.1427 N.ar    1  UNL1       -0.2089
      8 C          63.3567   90.2751   12.7763 C.ar    1  UNL1        0.1026
      9 C          63.7649   89.8082   14.1422 C.ar    1  UNL1        0.0224
     10 C          64.8714   90.5079   14.8743 C.ar    1  UNL1        0.0239
     11 C          65.5697   91.6745   14.2407 C.ar    1  UNL1        0.1189
     12 N          66.6763   92.3742   14.9728 N.ar    1  UNL1       -0.2826
     13 C          66.5802   92.9872   16.3384 C.ar    1  UNL1        0.1826
     14 N          67.9177   93.5756   16.6774 N.ar    1  UNL1       -0.2280
     15 C          68.8403   93.3261   15.5214 C.ar    1  UNL1        0.0786
     16 C          70.2779   93.7455   15.4342 C.3     1  UNL1        0.0538
     17 C          68.0731   92.5836   14.4679 C.ar    1  UNL1        0.0963
     18 C          65.5798   93.6629   10.8110 C.3     1  UNL1        0.2543
     19 O          65.8598   93.3079   12.2412 O.3     1  UNL1       -0.4551
     20 N          60.5290   86.5565   10.3153 N.pl3   1  UNL1       -0.2786
     21 H          59.5932   86.2599   10.3896 H       1  UNL1        0.1555
     22 C          61.5334   85.6987    9.6044 C.ar    1  UNL1        0.1278
     23 C          61.5369   85.3748    8.1398 C.ar    1  UNL1        0.0244
     24 C          62.7163   84.4902    7.8635 C.ar    1  UNL1        0.0773
     25 N          63.4419   84.2674    9.1573 N.ar    1  UNL1       -0.1726
     26 N          62.7108   85.0144   10.2333 N.ar    1  UNL1       -0.2295
     27 C          62.7198   84.1662    6.3989 C.3     1  UNL1        0.0477
     28 C          61.5424   84.8505    5.7700 C.3     1  UNL1        0.0112
     29 C          60.8113   85.5975    6.8460 C.3     1  UNL1        0.0308
     30 C          63.0904   85.0676   11.6834 C.3     1  UNL1        0.2315
     31 C          62.6522   83.9757   12.6140 C.3     1  UNL1        0.4200
     32 F          62.2140   82.8839   13.5445 F       1  UNL1       -0.1679
     33 F          63.0342   84.8248   13.7900 F       1  UNL1       -0.1679
     34 F          62.2703   83.1267   11.4379 F       1  UNL1       -0.1679
@<TRIPOS>BOND
     1    18    19    1
     2    19     6    1
     3     6     7   ar
     4     7     8   ar
     5     8     1    1
     6     1     2   ar
     7     2     3   ar
     8     3     4   ar
     9     4    20    1
    10    20    22    1
    11    22    23   ar
    12    23    24   ar
    13    24    25   ar
    14    25    26   ar
    15    26    30    1
    16    30    31    1
    17    31    32    1
    18    31    33    1
    19    31    34    1
    20    24    27    1
    21    27    28    1
    22    28    29    1
    23     4     5   ar
    24     8     9   ar
    25     9    10   ar
    26    10    11   ar
    27    11    12    1
    28    12    13   ar
    29    13    14   ar
    30    14    15   ar
    31    15    16    1
    32    15    17   ar
    33    11     6   ar
    34    17    12   ar
    35     5     1   ar
    36    26    22   ar
    37    29    23    1
    38    20    21    1
