@<TRIPOS>MOLECULE
*****
 30 32 0 0 0
SMALL
GASTEIGER

@<TRIPOS>ATOM
      1 C          65.6590   91.4729   13.9416 C.ar    1  UNL1        0.1556
      2 C          64.6420   91.3047   12.8518 C.ar    1  UNL1        0.0488
      3 C          63.8336   90.0786   13.1574 C.ar    1  UNL1        0.1330
      4 N          64.3509   89.4891   14.4360 N.ar    1  UNL1       -0.2441
      5 N          65.4790   90.3508   14.9207 N.ar    1  UNL1       -0.1643
      6 C          68.4189   93.9109   15.4210 C.3     1  UNL1        0.1110
      7 N          67.4008   92.8133   15.3269 N.am    1  UNL1       -0.2979
      8 C          66.6771   92.5704   14.0357 C.2     1  UNL1        0.2654
      9 O          66.9714   93.4250   12.8386 O.2     1  UNL1       -0.2684
     10 H          67.2076   92.2524   16.1126 H       1  UNL1        0.1498
     11 C          62.7058   89.5372   12.3297 C.2     1  UNL1        0.2633
     12 O          61.3017   89.5800   12.8556 O.2     1  UNL1       -0.2685
     13 N          62.9822   88.9531   10.9760 N.am    1  UNL1       -0.3013
     14 H          63.9038   88.9250   10.6309 H       1  UNL1        0.1497
     15 C          61.8545   88.4117   10.1483 C.3     1  UNL1        0.0721
     16 C          60.9597   89.3502    9.3944 C.3     1  UNL1        0.0221
     17 C          59.8320   88.8088    8.5667 C.3     1  UNL1        0.0309
     18 C          59.5991   87.3288    8.4929 C.3     1  UNL1        0.1106
     19 O          58.4714   86.7874    7.6651 O.3     1  UNL1       -0.3845
     20 C          60.4939   86.3903    9.2468 C.3     1  UNL1        0.0309
     21 C          61.6216   86.9317   10.0745 C.3     1  UNL1        0.0221
     22 H          57.9953   87.5220    7.2473 H       1  UNL1        0.2103
     23 C          63.8312   88.2547   15.1114 C.3     1  UNL1        0.1276
     24 C          63.0728   88.3679   16.4005 C.3     1  UNL1        0.0312
     25 C          64.0700   86.9070   14.4976 C.ar    1  UNL1       -0.0001
     26 C          65.1424   86.0127   15.0456 C.ar    1  UNL1       -0.0024
     27 C          65.3812   84.6650   14.4319 C.ar    1  UNL1       -0.0003
     28 C          64.5478   84.2116   13.2701 C.ar    1  UNL1       -0.0000
     29 C          63.4754   85.1059   12.7221 C.ar    1  UNL1       -0.0003
     30 C          63.2366   86.4536   13.3358 C.ar    1  UNL1       -0.0024
@<TRIPOS>BOND
     1     6     7    1
     2     7     8   am
     3     8     9    2
     4     8     1    1
     5     1     2   ar
     6     2     3   ar
     7     3    11    1
     8    11    12    2
     9    11    13   am
    10    15    13    1
    11    15    16    1
    12    16    17    1
    13    17    18    1
    14    18    19    1
    15    18    20    1
    16    20    21    1
    17     3     4   ar
    18     4    23    1
    19    23    24    1
    20    23    25    1
    21    25    26   ar
    22    26    27   ar
    23    27    28   ar
    24    28    29   ar
    25    29    30   ar
    26     4     5   ar
    27     5     1   ar
    28    21    15    1
    29    30    25   ar
    30     7    10    1
    31    13    14    1
    32    19    22    1
@<TRIPOS>MOLECULE
*****
 30 32 0 0 0
SMALL
GASTEIGER

@<TRIPOS>ATOM
      1 C          63.6432   90.3866   12.1645 C.ar    1  UNL1        0.1556
      2 C          63.5763   89.0062   12.7479 C.ar    1  UNL1        0.0488
      3 C          62.6666   88.1822   11.8856 C.ar    1  UNL1        0.1330
      4 N          62.1714   89.0532   10.7693 N.ar    1  UNL1       -0.2441
      5 N          62.7749   90.4156   10.9417 N.ar    1  UNL1       -0.1643
      6 C          66.0221   93.5593   12.3219 C.3     1  UNL1        0.1110
      7 N          65.2266   92.4098   11.7779 N.am    1  UNL1       -0.2979
      8 C          64.4387   91.5360   12.7084 C.2     1  UNL1        0.2654
      9 O          64.4464   91.8117   14.1829 O.2     1  UNL1       -0.2684
     10 H          65.2216   92.2289   10.8102 H       1  UNL1        0.1498
     11 C          62.3141   86.7403   12.1017 C.2     1  UNL1        0.2633
     12 O          60.9420   86.2435   11.7546 O.2     1  UNL1       -0.2685
     13 N          63.3338   85.7952   12.6649 N.am    1  UNL1       -0.3013
     14 H          64.2343   86.1213   12.8927 H       1  UNL1        0.1497
     15 C          62.9813   84.3533   12.8810 C.3     1  UNL1        0.0721
     16 C          63.0105   83.3932   11.7289 C.3     1  UNL1        0.0221
     17 C          62.6580   81.9514   11.9450 C.3     1  UNL1        0.0309
     18 C          62.2763   81.4696   13.3133 C.3     1  UNL1        0.1106
     19 O          61.9239   80.0276   13.5294 O.3     1  UNL1       -0.3845
     20 C          62.2471   82.4296   14.4654 C.3     1  UNL1        0.0309
     21 C          62.5996   83.8715   14.2493 C.3     1  UNL1        0.0221
     22 H          61.9925   79.5485   12.6888 H       1  UNL1        0.2103
     23 C          61.2367   88.6352    9.6732 C.3     1  UNL1        0.1276
     24 C          60.0392   89.4774    9.3467 C.3     1  UNL1        0.0312
     25 C          61.4994   87.3748    8.9034 C.ar    1  UNL1       -0.0001
     26 C          60.4100   86.7612    8.0749 C.ar    1  UNL1       -0.0024
     27 C          60.6727   85.5008    7.3051 C.ar    1  UNL1       -0.0003
     28 C          62.0248   84.8541    7.3639 C.ar    1  UNL1       -0.0000
     29 C          63.1142   85.4677    8.1925 C.ar    1  UNL1       -0.0003
     30 C          62.8516   86.7281    8.9622 C.ar    1  UNL1       -0.0024
@<TRIPOS>BOND
     1     6     7    1
     2     7     8   am
     3     8     9    2
     4     8     1    1
     5     1     2   ar
     6     2     3   ar
     7     3    11    1
     8    11    12    2
     9    11    13   am
    10    15    13    1
    11    15    16    1
    12    16    17    1
    13    17    18    1
    14    18    19    1
    15    18    20    1
    16    20    21    1
    17     3     4   ar
    18     4    23    1
    19    23    24    1
    20    23    25    1
    21    25    26   ar
    22    26    27   ar
    23    27    28   ar
    24    28    29   ar
    25    29    30   ar
    26     4     5   ar
    27     5     1   ar
    28    21    15    1
    29    30    25   ar
    30     7    10    1
    31    13    14    1
    32    19    22    1
@<TRIPOS>MOLECULE
*****
 30 32 0 0 0
SMALL
GASTEIGER

@<TRIPOS>ATOM
      1 C          61.9463   86.0157    9.3265 C.ar    1  UNL1        0.1556
      2 C          61.9916   87.3770    9.9552 C.ar    1  UNL1        0.0488
      3 C          62.4574   87.2179   11.3721 C.ar    1  UNL1        0.1330
      4 N          62.6999   85.7584   11.6193 N.ar    1  UNL1       -0.2441
      5 N          62.3841   85.0154   10.3551 N.ar    1  UNL1       -0.1643
      6 C          61.9686   84.4959    5.6606 C.3     1  UNL1        0.1110
      7 N          62.3795   84.8029    7.0701 N.am    1  UNL1       -0.2979
      8 C          61.5354   85.7087    7.9170 C.2     1  UNL1        0.2654
      9 O          60.2805   86.3075    7.3543 O.2     1  UNL1       -0.2684
     10 H          63.2031   84.4099    7.4395 H       1  UNL1        0.1498
     11 C          62.6472   88.3242   12.3672 C.2     1  UNL1        0.2633
     12 O          61.5662   89.3440   12.5702 O.2     1  UNL1       -0.2685
     13 N          63.9181   88.4106   13.1593 N.am    1  UNL1       -0.3013
     14 H          64.6276   87.7412   13.0260 H       1  UNL1        0.1497
     15 C          64.1079   89.5169   14.1544 C.3     1  UNL1        0.0721
     16 C          63.3808   89.4790   15.4658 C.3     1  UNL1        0.0221
     17 C          63.5706   90.5853   16.4608 C.3     1  UNL1        0.0309
     18 C          64.4877   91.7294   16.1444 C.3     1  UNL1        0.1106
     19 O          64.6775   92.8357   17.1395 O.3     1  UNL1       -0.3845
     20 C          65.2148   91.7672   14.8330 C.3     1  UNL1        0.0309
     21 C          65.0249   90.6610   13.8380 C.3     1  UNL1        0.0221
     22 H          64.1397   92.6581   17.9270 H       1  UNL1        0.2103
     23 C          63.1749   85.1490   12.9049 C.3     1  UNL1        0.1276
     24 C          63.8666   86.0004   13.9281 C.3     1  UNL1        0.0312
     25 C          62.9582   83.6881   13.1676 C.ar    1  UNL1       -0.0001
     26 C          63.6317   82.6630   12.3042 C.ar    1  UNL1       -0.0024
     27 C          63.4151   81.2021   12.5667 C.ar    1  UNL1       -0.0003
     28 C          62.5250   80.7664   13.6927 C.ar    1  UNL1       -0.0000
     29 C          61.8515   81.7915   14.5561 C.ar    1  UNL1       -0.0003
     30 C          62.0681   83.2524   14.2935 C.ar    1  UNL1       -0.0024
@<TRIPOS>BOND
     1     6     7    1
     2     7     8   am
     3     8     9    2
     4     8     1    1
     5     1     2   ar
     6     2     3   ar
     7     3    11    1
     8    11    12    2
     9    11    13   am
    10    15    13    1
    11    15    16    1
    12    16    17    1
    13    17    18    1
    14    18    19    1
    15    18    20    1
    16    20    21    1
    17     3     4   ar
    18     4    23    1
    19    23    24    1
    20    23    25    1
    21    25    26   ar
    22    26    27   ar
    23    27    28   ar
    24    28    29   ar
    25    29    30   ar
    26     4     5   ar
    27     5     1   ar
    28    21    15    1
    29    30    25   ar
    30     7    10    1
    31    13    14    1
    32    19    22    1
@<TRIPOS>MOLECULE
*****
 30 32 0 0 0
SMALL
GASTEIGER

@<TRIPOS>ATOM
      1 C          65.2718   91.3591   13.9248 C.ar    1  UNL1        0.1556
      2 C          64.2001   91.3136   12.8761 C.ar    1  UNL1        0.0488
      3 C          63.5953   89.9411   12.8907 C.ar    1  UNL1        0.1330
      4 N          64.2929   89.1382   13.9484 N.ar    1  UNL1       -0.2441
      5 N          65.3291   90.0146   14.5875 N.ar    1  UNL1       -0.1643
      6 C          68.1030   93.5893   15.5861 C.3     1  UNL1        0.1110
      7 N          67.2403   92.4070   15.2578 N.am    1  UNL1       -0.2979
      8 C          66.1345   92.5414   14.2531 C.2     1  UNL1        0.2654
      9 O          65.8914   93.8580   13.5769 O.2     1  UNL1       -0.2684
     10 H          67.3998   91.5429   15.7016 H       1  UNL1        0.1498
     11 C          62.4872   89.4564   12.0034 C.2     1  UNL1        0.2633
     12 O          61.0576   89.6619   12.4085 O.2     1  UNL1       -0.2685
     13 N          62.8087   88.7665   10.7109 N.am    1  UNL1       -0.3013
     14 H          63.7469   88.6317   10.4450 H       1  UNL1        0.1497
     15 C          61.7006   88.2819    9.8235 C.3     1  UNL1        0.0721
     16 C          61.4964   86.8107    9.6141 C.3     1  UNL1        0.0221
     17 C          60.3883   86.3261    8.7268 C.3     1  UNL1        0.0309
     18 C          59.4845   87.3128    8.0489 C.3     1  UNL1        0.1106
     19 O          58.3764   86.8282    7.1615 O.3     1  UNL1       -0.3845
     20 C          59.6886   88.7840    8.2583 C.3     1  UNL1        0.0309
     21 C          60.7967   89.2685    9.1456 C.3     1  UNL1        0.0221
     22 H          58.3838   85.8586    7.1351 H       1  UNL1        0.2103
     23 C          64.0050   87.7099   14.3044 C.3     1  UNL1        0.1276
     24 C          64.1461   86.6353   13.2674 C.3     1  UNL1        0.0312
     25 C          63.5760   87.3560   15.6975 C.ar    1  UNL1       -0.0001
     26 C          63.2248   88.4406   16.6724 C.ar    1  UNL1       -0.0024
     27 C          62.7958   88.0868   18.0655 C.ar    1  UNL1       -0.0003
     28 C          62.7179   86.6484   18.4838 C.ar    1  UNL1       -0.0000
     29 C          63.0690   85.5638   17.5089 C.ar    1  UNL1       -0.0003
     30 C          63.4981   85.9176   16.1158 C.ar    1  UNL1       -0.0024
@<TRIPOS>BOND
     1     6     7    1
     2     7     8   am
     3     8     9    2
     4     8     1    1
     5     1     2   ar
     6     2     3   ar
     7     3    11    1
     8    11    12    2
     9    11    13   am
    10    15    13    1
    11    15    16    1
    12    16    17    1
    13    17    18    1
    14    18    19    1
    15    18    20    1
    16    20    21    1
    17     3     4   ar
    18     4    23    1
    19    23    24    1
    20    23    25    1
    21    25    26   ar
    22    26    27   ar
    23    27    28   ar
    24    28    29   ar
    25    29    30   ar
    26     4     5   ar
    27     5     1   ar
    28    21    15    1
    29    30    25   ar
    30     7    10    1
    31    13    14    1
    32    19    22    1
@<TRIPOS>MOLECULE
*****
 30 32 0 0 0
SMALL
GASTEIGER

@<TRIPOS>ATOM
      1 C          61.6068   88.6246   10.8018 C.ar    1  UNL1        0.1556
      2 C          62.2327   89.8752   11.3446 C.ar    1  UNL1        0.0488
      3 C          63.1189   89.4896   12.4918 C.ar    1  UNL1        0.1330
      4 N          63.0406   88.0010   12.6581 N.ar    1  UNL1       -0.2441
      5 N          62.1061   87.4663   11.6137 N.ar    1  UNL1       -0.1643
      6 C          59.3481   87.1367    7.8976 C.3     1  UNL1        0.1110
      7 N          60.3053   87.2151    9.0499 N.am    1  UNL1       -0.2979
      8 C          60.6496   88.5462    9.6496 C.2     1  UNL1        0.2654
      9 O          60.0367   89.7988    9.0971 O.2     1  UNL1       -0.2684
     10 H          60.7075   86.3929    9.4125 H       1  UNL1        0.1498
     11 C          63.9392   90.4282   13.3262 C.2     1  UNL1        0.2633
     12 O          63.3592   91.0239   14.5747 O.2     1  UNL1       -0.2685
     13 N          65.3396   90.7709   12.9122 N.am    1  UNL1       -0.3013
     14 H          65.7203   90.3799   12.0928 H       1  UNL1        0.1497
     15 C          66.1600   91.7095   13.7466 C.3     1  UNL1        0.0721
     16 C          67.0036   91.1755   14.8660 C.3     1  UNL1        0.0221
     17 C          67.8239   92.1141   15.7004 C.3     1  UNL1        0.0309
     18 C          67.8006   93.5866   15.4153 C.3     1  UNL1        0.1106
     19 O          68.6209   94.5251   16.2498 O.3     1  UNL1       -0.3845
     20 C          66.9569   94.1205   14.2960 C.3     1  UNL1        0.0309
     21 C          66.1366   93.1820   13.4616 C.3     1  UNL1        0.0221
     22 H          69.1030   94.0211   16.9240 H       1  UNL1        0.2103
     23 C          63.7691   87.1894   13.6880 C.3     1  UNL1        0.1276
     24 C          64.5541   87.8760   14.7661 C.3     1  UNL1        0.0312
     25 C          63.7125   85.6912   13.6399 C.ar    1  UNL1       -0.0001
     26 C          64.1939   84.8847   14.8094 C.ar    1  UNL1       -0.0024
     27 C          64.1373   83.3865   14.7613 C.ar    1  UNL1       -0.0003
     28 C          63.5993   82.6949   13.5439 C.ar    1  UNL1       -0.0000
     29 C          63.1179   83.5015   12.3744 C.ar    1  UNL1       -0.0003
     30 C          63.1745   84.9997   12.4224 C.ar    1  UNL1       -0.0024
@<TRIPOS>BOND
     1     6     7    1
     2     7     8   am
     3     8     9    2
     4     8     1    1
     5     1     2   ar
     6     2     3   ar
     7     3    11    1
     8    11    12    2
     9    11    13   am
    10    15    13    1
    11    15    16    1
    12    16    17    1
    13    17    18    1
    14    18    19    1
    15    18    20    1
    16    20    21    1
    17     3     4   ar
    18     4    23    1
    19    23    24    1
    20    23    25    1
    21    25    26   ar
    22    26    27   ar
    23    27    28   ar
    24    28    29   ar
    25    29    30   ar
    26     4     5   ar
    27     5     1   ar
    28    21    15    1
    29    30    25   ar
    30     7    10    1
    31    13    14    1
    32    19    22    1
@<TRIPOS>MOLECULE
*****
 30 32 0 0 0
SMALL
GASTEIGER

@<TRIPOS>ATOM
      1 C          60.8289   88.2571    9.6119 C.ar    1  UNL1        0.1556
      2 C          61.3925   89.4395   10.3430 C.ar    1  UNL1        0.0488
      3 C          62.2774   88.9271   11.4405 C.ar    1  UNL1        0.1330
      4 N          62.2608   87.4282   11.3877 N.ar    1  UNL1       -0.2441
      5 N          61.3656   87.0140   10.2576 N.ar    1  UNL1       -0.1643
      6 C          58.9535   89.5564    6.3647 C.3     1  UNL1        0.1110
      7 N          59.8894   89.5049    7.5358 N.am    1  UNL1       -0.2979
      8 C          59.8930   88.3087    8.4409 C.2     1  UNL1        0.2654
      9 O          58.9608   87.1641    8.1749 O.2     1  UNL1       -0.2684
     10 H          60.5013   90.2561    7.7104 H       1  UNL1        0.1498
     11 C          63.0443   89.7665   12.4190 C.2     1  UNL1        0.2633
     12 O          62.6051   89.8382   13.8514 O.2     1  UNL1       -0.2685
     13 N          64.2503   90.5342   11.9650 N.am    1  UNL1       -0.3013
     14 H          64.5386   90.4871   11.0248 H       1  UNL1        0.1497
     15 C          65.0172   91.3736   12.9434 C.3     1  UNL1        0.0721
     16 C          65.5597   92.7075   12.5237 C.3     1  UNL1        0.0221
     17 C          66.3266   93.5469   13.5022 C.3     1  UNL1        0.0309
     18 C          66.5509   93.0522   14.9004 C.3     1  UNL1        0.1106
     19 O          67.3179   93.8916   15.8788 O.3     1  UNL1       -0.3845
     20 C          66.0085   91.7183   15.3201 C.3     1  UNL1        0.0309
     21 C          65.2416   90.8790   14.3417 C.3     1  UNL1        0.0221
     22 H          67.5951   94.7162   15.4498 H       1  UNL1        0.2103
     23 C          63.0082   86.5054   12.3041 C.3     1  UNL1        0.1276
     24 C          63.7419   87.0581   13.4900 C.3     1  UNL1        0.0312
     25 C          63.0220   85.0299   12.0347 C.ar    1  UNL1       -0.0001
     26 C          63.5072   84.5134   10.7126 C.ar    1  UNL1       -0.0024
     27 C          63.5210   83.0379   10.4431 C.ar    1  UNL1       -0.0003
     28 C          63.0497   82.0788   11.4957 C.ar    1  UNL1       -0.0000
     29 C          62.5646   82.5952   12.8178 C.ar    1  UNL1       -0.0003
     30 C          62.5507   84.0707   13.0873 C.ar    1  UNL1       -0.0024
@<TRIPOS>BOND
     1     6     7    1
     2     7     8   am
     3     8     9    2
     4     8     1    1
     5     1     2   ar
     6     2     3   ar
     7     3    11    1
     8    11    12    2
     9    11    13   am
    10    15    13    1
    11    15    16    1
    12    16    17    1
    13    17    18    1
    14    18    19    1
    15    18    20    1
    16    20    21    1
    17     3     4   ar
    18     4    23    1
    19    23    24    1
    20    23    25    1
    21    25    26   ar
    22    26    27   ar
    23    27    28   ar
    24    28    29   ar
    25    29    30   ar
    26     4     5   ar
    27     5     1   ar
    28    21    15    1
    29    30    25   ar
    30     7    10    1
    31    13    14    1
    32    19    22    1
@<TRIPOS>MOLECULE
*****
 30 32 0 0 0
SMALL
GASTEIGER

@<TRIPOS>ATOM
      1 C          60.2823   88.8853    8.7393 C.ar    1  UNL1        0.1556
      2 C          60.7986   87.5531    9.1965 C.ar    1  UNL1        0.0488
      3 C          61.5160   87.7560   10.4980 C.ar    1  UNL1        0.1330
      4 N          61.4433   89.2134   10.8453 N.ar    1  UNL1       -0.2441
      5 N          60.6809   89.9114    9.7583 N.ar    1  UNL1       -0.1643
      6 C          59.0605   90.5904    5.3704 C.3     1  UNL1        0.1110
      7 N          59.8386   90.3301    6.6261 N.am    1  UNL1       -0.2979
      8 C          59.5043   89.1456    7.4836 C.2     1  UNL1        0.2654
      9 O          58.3919   88.2215    7.0853 O.2     1  UNL1       -0.2684
     10 H          60.5687   90.9366    6.8875 H       1  UNL1        0.1498
     11 C          62.1883   86.6886   11.3099 C.2     1  UNL1        0.2633
     12 O          63.2145   87.0628   12.3379 O.2     1  UNL1       -0.2685
     13 N          61.8343   85.2472   11.0937 N.am    1  UNL1       -0.3013
     14 H          61.1607   85.0016   10.4190 H       1  UNL1        0.1497
     15 C          62.5065   84.1798   11.9055 C.3     1  UNL1        0.0721
     16 C          62.3424   84.1563   13.3962 C.3     1  UNL1        0.0221
     17 C          63.0146   83.0890   14.2080 C.3     1  UNL1        0.0309
     18 C          63.8509   82.0452   13.5289 C.3     1  UNL1        0.1106
     19 O          64.5232   80.9779   14.3407 O.3     1  UNL1       -0.3845
     20 C          64.0151   82.0688   12.0381 C.3     1  UNL1        0.0309
     21 C          63.3429   83.1361   11.2264 C.3     1  UNL1        0.0221
     22 H          64.3159   81.1069   15.2795 H       1  UNL1        0.2103
     23 C          62.0300   89.8594   12.0653 C.3     1  UNL1        0.1276
     24 C          61.4077   89.6265   13.4101 C.3     1  UNL1        0.0312
     25 C          63.2392   90.7383   11.9405 C.ar    1  UNL1       -0.0001
     26 C          63.5782   91.3644   10.6203 C.ar    1  UNL1       -0.0024
     27 C          64.7873   92.2434   10.4954 C.ar    1  UNL1       -0.0003
     28 C          65.6573   92.4962   11.6908 C.ar    1  UNL1       -0.0000
     29 C          65.3184   91.8701   13.0111 C.ar    1  UNL1       -0.0003
     30 C          64.1093   90.9911   13.1359 C.ar    1  UNL1       -0.0024
@<TRIPOS>BOND
     1     6     7    1
     2     7     8   am
     3     8     9    2
     4     8     1    1
     5     1     2   ar
     6     2     3   ar
     7     3    11    1
     8    11    12    2
     9    11    13   am
    10    15    13    1
    11    15    16    1
    12    16    17    1
    13    17    18    1
    14    18    19    1
    15    18    20    1
    16    20    21    1
    17     3     4   ar
    18     4    23    1
    19    23    24    1
    20    23    25    1
    21    25    26   ar
    22    26    27   ar
    23    27    28   ar
    24    28    29   ar
    25    29    30   ar
    26     4     5   ar
    27     5     1   ar
    28    21    15    1
    29    30    25   ar
    30     7    10    1
    31    13    14    1
    32    19    22    1
@<TRIPOS>MOLECULE
*****
 30 32 0 0 0
SMALL
GASTEIGER

@<TRIPOS>ATOM
      1 C          62.1925   82.1259   13.6499 C.ar    1  UNL1        0.1556
      2 C          61.9526   83.1276   12.5594 C.ar    1  UNL1        0.0488
      3 C          62.7975   84.3339   12.8441 C.ar    1  UNL1        0.1330
      4 N          63.5595   84.0778   14.1105 N.ar    1  UNL1       -0.2441
      5 N          63.1856   82.7132   14.6085 N.ar    1  UNL1       -0.1643
      6 C          59.4827   79.3042   14.3165 C.3     1  UNL1        0.1110
      7 N          60.1234   80.6558   14.2043 N.am    1  UNL1       -0.2979
      8 C          61.5518   80.7743   13.7621 C.2     1  UNL1        0.2654
      9 O          62.3395   79.5412   13.4319 O.2     1  UNL1       -0.2684
     10 H          59.6064   81.4651   14.4210 H       1  UNL1        0.1498
     11 C          62.8680   85.5780   12.0089 C.2     1  UNL1        0.2633
     12 O          63.1425   85.4790   10.5376 O.2     1  UNL1       -0.2685
     13 N          62.6639   86.9210   12.6451 N.am    1  UNL1       -0.3013
     14 H          62.4837   86.9859   13.6108 H       1  UNL1        0.1497
     15 C          62.7343   88.1650   11.8099 C.3     1  UNL1        0.0721
     16 C          62.1086   88.1898   10.4470 C.3     1  UNL1        0.0221
     17 C          62.1790   89.4338    9.6119 C.3     1  UNL1        0.0309
     18 C          62.8753   90.6531   10.1398 C.3     1  UNL1        0.1106
     19 O          62.9457   91.8971    9.3046 O.3     1  UNL1       -0.3845
     20 C          63.5010   90.6283   11.5028 C.3     1  UNL1        0.0309
     21 C          63.4306   89.3843   12.3378 C.3     1  UNL1        0.0221
     22 H          62.4955   91.7448    8.4590 H       1  UNL1        0.2103
     23 C          64.5257   85.0208   14.7640 C.3     1  UNL1        0.1276
     24 C          66.0025   84.7990   14.6223 C.3     1  UNL1        0.0312
     25 C          64.0153   86.1857   15.5594 C.ar    1  UNL1       -0.0001
     26 C          63.2272   85.9496   16.8136 C.ar    1  UNL1       -0.0024
     27 C          62.7167   87.1144   17.6091 C.ar    1  UNL1       -0.0003
     28 C          62.9942   88.5152   17.1502 C.ar    1  UNL1       -0.0000
     29 C          63.7823   88.7513   15.8959 C.ar    1  UNL1       -0.0003
     30 C          64.2928   87.5865   15.1005 C.ar    1  UNL1       -0.0024
@<TRIPOS>BOND
     1     6     7    1
     2     7     8   am
     3     8     9    2
     4     8     1    1
     5     1     2   ar
     6     2     3   ar
     7     3    11    1
     8    11    12    2
     9    11    13   am
    10    15    13    1
    11    15    16    1
    12    16    17    1
    13    17    18    1
    14    18    19    1
    15    18    20    1
    16    20    21    1
    17     3     4   ar
    18     4    23    1
    19    23    24    1
    20    23    25    1
    21    25    26   ar
    22    26    27   ar
    23    27    28   ar
    24    28    29   ar
    25    29    30   ar
    26     4     5   ar
    27     5     1   ar
    28    21    15    1
    29    30    25   ar
    30     7    10    1
    31    13    14    1
    32    19    22    1
@<TRIPOS>MOLECULE
*****
 30 32 0 0 0
SMALL
GASTEIGER

@<TRIPOS>ATOM
      1 C          59.4816   89.6523    7.2234 C.ar    1  UNL1        0.1556
      2 C          59.9733   88.2360    7.2749 C.ar    1  UNL1        0.0488
      3 C          60.4565   87.9636    8.6685 C.ar    1  UNL1        0.1330
      4 N          60.2636   89.2113    9.4783 N.ar    1  UNL1       -0.2441
      5 N          59.6611   90.2550    8.5853 N.ar    1  UNL1       -0.1643
      6 C          56.8554   91.2040    4.6847 C.3     1  UNL1        0.1110
      7 N          57.4262   90.5120    5.8868 N.am    1  UNL1       -0.2979
      8 C          58.9108   90.3443    6.0212 C.2     1  UNL1        0.2654
      9 O          59.8245   90.8687    4.9534 O.2     1  UNL1       -0.2684
     10 H          56.8265   90.1679    6.5877 H       1  UNL1        0.1498
     11 C          61.0318   86.6702    9.1651 C.2     1  UNL1        0.2633
     12 O          60.5995   85.3721    8.5503 O.2     1  UNL1       -0.2685
     13 N          62.0392   86.6751   10.2763 N.am    1  UNL1       -0.3013
     14 H          62.3229   87.5272   10.6798 H       1  UNL1        0.1497
     15 C          62.6145   85.3818   10.7729 C.3     1  UNL1        0.0721
     16 C          62.4415   84.9866   12.2095 C.3     1  UNL1        0.0221
     17 C          63.0168   83.6933   12.7060 C.3     1  UNL1        0.0309
     18 C          63.7649   82.7953   11.7659 C.3     1  UNL1        0.1106
     19 O          64.3401   81.5020   12.2624 O.3     1  UNL1       -0.3845
     20 C          63.9378   83.1905   10.3293 C.3     1  UNL1        0.0309
     21 C          63.3626   84.4838    9.8328 C.3     1  UNL1        0.0221
     22 H          64.1399   81.4002   13.2061 H       1  UNL1        0.2103
     23 C          60.6120   89.3848   10.9269 C.3     1  UNL1        0.1276
     24 C          59.6788   88.8823   11.9883 C.3     1  UNL1        0.0312
     25 C          61.8938   90.0609   11.3142 C.ar    1  UNL1       -0.0001
     26 C          62.4368   89.8996   12.7032 C.ar    1  UNL1       -0.0024
     27 C          63.7185   90.5757   13.0906 C.ar    1  UNL1       -0.0003
     28 C          64.4574   91.4129   12.0891 C.ar    1  UNL1       -0.0000
     29 C          63.9144   91.5742   10.7001 C.ar    1  UNL1       -0.0003
     30 C          62.6327   90.8982   10.3127 C.ar    1  UNL1       -0.0024
@<TRIPOS>BOND
     1     6     7    1
     2     7     8   am
     3     8     9    2
     4     8     1    1
     5     1     2   ar
     6     2     3   ar
     7     3    11    1
     8    11    12    2
     9    11    13   am
    10    15    13    1
    11    15    16    1
    12    16    17    1
    13    17    18    1
    14    18    19    1
    15    18    20    1
    16    20    21    1
    17     3     4   ar
    18     4    23    1
    19    23    24    1
    20    23    25    1
    21    25    26   ar
    22    26    27   ar
    23    27    28   ar
    24    28    29   ar
    25    29    30   ar
    26     4     5   ar
    27     5     1   ar
    28    21    15    1
    29    30    25   ar
    30     7    10    1
    31    13    14    1
    32    19    22    1
