@<TRIPOS>MOLECULE
*****
 33 38 0 0 0
SMALL
GASTEIGER

@<TRIPOS>ATOM
      1 C          56.8498   92.7064   -4.1630 C.ar    1  UNL1        0.1028
      2 C          56.0780   92.1213   -3.0177 C.ar    1  UNL1        0.0131
      3 C          56.6613   92.1338   -1.6358 C.ar    1  UNL1       -0.0015
      4 C          57.9915   92.6557   -1.0645 C.ar    1  UNL1        0.0035
      5 C          57.8340   92.8633   -2.5416 C.ar    1  UNL1        0.0358
      6 C          58.2051   93.3041   -3.9265 C.ar    1  UNL1        0.1545
      7 O          59.0485   93.9110   -5.0082 O.3     1  UNL1       -0.4528
      8 C          60.2359   94.5917   -5.6222 C.ar    1  UNL1        0.1450
      9 C          61.0576   95.2829   -7.1993 C.ar    1  UNL1        0.0372
     10 C          62.3452   95.9627   -7.5597 C.ar    1  UNL1       -0.0014
     11 C          63.3670   96.2445   -6.4983 C.ar    1  UNL1       -0.0243
     12 C          62.8944   95.7642   -5.1583 C.ar    1  UNL1       -0.0052
     13 C          61.5864   95.2424   -5.6748 C.ar    1  UNL1        0.0345
     14 C          63.9608   96.0775   -4.1509 C.3     1  UNL1        0.0980
     15 C          65.0925   96.7516   -4.8685 C.3     1  UNL1        0.0290
     16 C          64.7256   96.8548   -6.3193 C.3     1  UNL1        0.0281
     17 N          64.6232   96.1348   -2.8064 N.am    1  UNL1       -0.2763
     18 C          65.8785   96.6011   -2.1305 C.3     1  UNL1        0.0956
     19 C          65.7697   96.2705   -0.6715 C.3     1  UNL1        0.0466
     20 C          64.4097   95.4864    0.0557 C.3     1  UNL1        0.1337
     21 N          63.5662   94.8794    1.1375 N.3     1  UNL1       -0.2863
     22 C          62.3788   94.1988    1.7514 C.3     1  UNL1        0.1151
     23 C          61.0284   93.5480    1.8041 C.ar    1  UNL1        0.0739
     24 C          61.0796   93.2901    3.2809 C.ar    1  UNL1        0.1147
     25 N          59.8032   92.6088    3.6769 N.ar    1  UNL1       -0.2226
     26 C          58.9632   92.4458    2.4449 C.ar    1  UNL1        0.1786
     27 N          59.7204   93.0263    1.2874 N.ar    1  UNL1       -0.3070
     28 C          58.6540   92.7129    0.2801 C.3     1  UNL1        0.1341
     29 C          64.7809   95.9272   -1.3292 C.2     1  UNL1        0.2401
     30 O          65.4937   96.2779   -1.3948 O.2     1  UNL1       -0.2734
     31 H          63.5605   95.6951    1.7499 H       1  UNL1        0.1240
     32 N          55.6831   92.6812   -6.9267 N.1     1  UNL1       -0.1907
     33 C          56.2665   92.6938   -5.5449 C.1     1  UNL1        0.1035
@<TRIPOS>BOND
     1    32    33    3
     2    33     1    1
     3     1     2   ar
     4     2     3   ar
     5     3     4   ar
     6     4     5   ar
     7     5     6   ar
     8     6     7    1
     9     7     8    1
    10     8     9   ar
    11     9    10   ar
    12    10    11   ar
    13    11    12   ar
    14    12    13   ar
    15    12    14    1
    16    14    15    1
    17    15    16    1
    18    14    17    1
    19    17    18    1
    20    18    19    1
    21    20    19    1
    22    20    21    1
    23    21    22    1
    24    22    23    1
    25    23    24   ar
    26    24    25   ar
    27    25    26   ar
    28    26    27   ar
    29    27    28    1
    30    20    29    1
    31    29    30    2
    32     6     1   ar
    33    13     8   ar
    34    29    17   am
    35    28     4    1
    36    16    11    1
    37    27    23   ar
    38    21    31    1
@<TRIPOS>MOLECULE
*****
 33 38 0 0 0
SMALL
GASTEIGER

@<TRIPOS>ATOM
      1 C          44.0612   73.5168   16.0191 C.ar    1  UNL1        0.1028
      2 C          44.1161   73.1390   17.4696 C.ar    1  UNL1        0.0131
      3 C          44.1059   74.2062   18.5236 C.ar    1  UNL1       -0.0015
      4 C          44.0466   75.7426   18.4589 C.ar    1  UNL1        0.0035
      5 C          44.0340   75.0704   17.1180 C.ar    1  UNL1        0.0358
      6 C          43.9960   74.9619   15.6224 C.ar    1  UNL1        0.1545
      7 O          43.9383   75.4339   14.1998 O.3     1  UNL1       -0.4528
      8 C          43.8697   76.4144   13.0666 C.ar    1  UNL1        0.1450
      9 C          43.8062   76.6921   11.1801 C.ar    1  UNL1        0.0372
     10 C          43.7361   77.8617   10.2435 C.ar    1  UNL1       -0.0014
     11 C          43.6992   79.2584   10.7894 C.ar    1  UNL1       -0.0243
     12 C          43.7418   79.2492   12.2887 C.ar    1  UNL1       -0.0052
     13 C          43.8007   77.7541   12.3956 C.ar    1  UNL1        0.0345
     14 C          43.7019   80.6719   12.7623 C.3     1  UNL1        0.0980
     15 C          43.6347   81.5604   11.5557 C.3     1  UNL1        0.0290
     16 C          43.6330   80.6868   10.3363 C.3     1  UNL1        0.0281
     17 N          43.6871   81.8057   13.7443 N.am    1  UNL1       -0.2763
     18 C          43.6330   83.3031   13.8140 C.3     1  UNL1        0.0956
     19 C          43.6588   83.7011   15.2600 C.3     1  UNL1        0.0466
     20 C          43.7377   82.5864   16.5808 C.3     1  UNL1        0.1337
     21 N          43.7954   82.1144   18.0034 N.3     1  UNL1       -0.2863
     22 C          43.8640   81.1339   19.1365 C.3     1  UNL1        0.1151
     23 C          43.9330   79.7942   19.8076 C.ar    1  UNL1        0.0739
     24 C          43.9510   80.3593   21.1970 C.ar    1  UNL1        0.1147
     25 N          44.0210   79.2135   22.1625 N.ar    1  UNL1       -0.2226
     26 C          44.0463   77.9403   21.3699 C.ar    1  UNL1        0.1786
     27 N          43.9919   78.2991   19.9145 N.ar    1  UNL1       -0.3070
     28 C          44.0318   76.8764   19.4408 C.3     1  UNL1        0.1341
     29 C          43.6997   82.4780   15.0852 C.2     1  UNL1        0.2401
     30 O          43.6627   83.1720   14.6947 O.2     1  UNL1       -0.2734
     31 H          42.9526   82.5950   18.3182 H       1  UNL1        0.1240
     32 N          44.0816   71.3824   13.9111 N.1     1  UNL1       -0.1907
     33 C          44.0714   72.4496   14.9650 C.1     1  UNL1        0.1035
@<TRIPOS>BOND
     1    32    33    3
     2    33     1    1
     3     1     2   ar
     4     2     3   ar
     5     3     4   ar
     6     4     5   ar
     7     5     6   ar
     8     6     7    1
     9     7     8    1
    10     8     9   ar
    11     9    10   ar
    12    10    11   ar
    13    11    12   ar
    14    12    13   ar
    15    12    14    1
    16    14    15    1
    17    15    16    1
    18    14    17    1
    19    17    18    1
    20    18    19    1
    21    20    19    1
    22    20    21    1
    23    21    22    1
    24    22    23    1
    25    23    24   ar
    26    24    25   ar
    27    25    26   ar
    28    26    27   ar
    29    27    28    1
    30    20    29    1
    31    29    30    2
    32     6     1   ar
    33    13     8   ar
    34    29    17   am
    35    28     4    1
    36    16    11    1
    37    27    23   ar
    38    21    31    1
@<TRIPOS>MOLECULE
*****
 33 38 0 0 0
SMALL
GASTEIGER

@<TRIPOS>ATOM
      1 C          43.6462   72.9169   16.7137 C.ar    1  UNL1        0.1028
      2 C          43.6445   72.4919   15.2753 C.ar    1  UNL1        0.0131
      3 C          43.6422   73.5251   14.1878 C.ar    1  UNL1       -0.0015
      4 C          43.6411   75.0640   14.2043 C.ar    1  UNL1        0.0035
      5 C          43.6435   74.4352   15.5661 C.ar    1  UNL1        0.0358
      6 C          43.6456   74.3752   17.0649 C.ar    1  UNL1        0.1545
      7 O          43.6472   74.8935   18.4725 O.3     1  UNL1       -0.4528
      8 C          43.6480   75.9110   19.5747 C.ar    1  UNL1        0.1450
      9 C          43.6504   76.2501   21.4522 C.ar    1  UNL1        0.0372
     10 C          43.6508   77.4503   22.3519 C.ar    1  UNL1       -0.0014
     11 C          43.6489   78.8295   21.7622 C.ar    1  UNL1       -0.0243
     12 C          43.6469   78.7717   20.2634 C.ar    1  UNL1       -0.0052
     13 C          43.6479   77.2728   20.2035 C.ar    1  UNL1        0.0345
     14 C          43.6451   80.1793   19.7451 C.3     1  UNL1        0.0980
     15 C          43.6461   81.1072   20.9237 C.3     1  UNL1        0.0290
     16 C          43.6485   80.2730   22.1704 C.3     1  UNL1        0.0281
     17 N          43.6429   81.2814   18.7276 N.am    1  UNL1       -0.2763
     18 C          43.6416   82.7769   18.6108 C.3     1  UNL1        0.0956
     19 C          43.6393   83.1280   17.1526 C.3     1  UNL1        0.0466
     20 C          43.6384   81.9701   15.8670 C.3     1  UNL1        0.1337
     21 N          43.6368   81.4518   14.4593 N.3     1  UNL1       -0.2863
     22 C          43.6360   80.4343   13.3572 C.3     1  UNL1        0.1151
     23 C          43.6361   79.0725   12.7283 C.ar    1  UNL1        0.0739
     24 C          43.6337   79.5926   11.3214 C.ar    1  UNL1        0.1147
     25 N          43.6333   78.4152   10.3920 N.ar    1  UNL1       -0.2226
     26 C          43.6354   77.1675   11.2246 C.ar    1  UNL1        0.1786
     27 N          43.6371   77.5737   12.6685 N.ar    1  UNL1       -0.3070
     28 C          43.6389   76.1661   13.1868 C.3     1  UNL1        0.1341
     29 C          43.6405   81.9103   17.3658 C.2     1  UNL1        0.2401
     30 O          43.6405   82.6171   17.7343 O.2     1  UNL1       -0.2734
     31 H          44.4688   81.9548   14.1508 H       1  UNL1        0.1240
     32 N          43.6507   70.8506   18.8886 N.1     1  UNL1       -0.1907
     33 C          43.6485   71.8837   17.8012 C.1     1  UNL1        0.1035
@<TRIPOS>BOND
     1    32    33    3
     2    33     1    1
     3     1     2   ar
     4     2     3   ar
     5     3     4   ar
     6     4     5   ar
     7     5     6   ar
     8     6     7    1
     9     7     8    1
    10     8     9   ar
    11     9    10   ar
    12    10    11   ar
    13    11    12   ar
    14    12    13   ar
    15    12    14    1
    16    14    15    1
    17    15    16    1
    18    14    17    1
    19    17    18    1
    20    18    19    1
    21    20    19    1
    22    20    21    1
    23    21    22    1
    24    22    23    1
    25    23    24   ar
    26    24    25   ar
    27    25    26   ar
    28    26    27   ar
    29    27    28    1
    30    20    29    1
    31    29    30    2
    32     6     1   ar
    33    13     8   ar
    34    29    17   am
    35    28     4    1
    36    16    11    1
    37    27    23   ar
    38    21    31    1
@<TRIPOS>MOLECULE
*****
 33 38 0 0 0
SMALL
GASTEIGER

@<TRIPOS>ATOM
      1 C          43.6346   82.9832   17.0316 C.ar    1  UNL1        0.1028
      2 C          43.6337   83.5735   15.6527 C.ar    1  UNL1        0.0131
      3 C          43.6336   82.6745   14.4519 C.ar    1  UNL1       -0.0015
      4 C          43.6344   81.1442   14.2883 C.ar    1  UNL1        0.0035
      5 C          43.6347   81.6095   15.7143 C.ar    1  UNL1        0.0358
      6 C          43.6355   81.4938   17.2099 C.ar    1  UNL1        0.1545
      7 O          43.6364   80.8146   18.5472 O.3     1  UNL1       -0.4528
      8 C          43.6374   79.6752   19.5229 C.ar    1  UNL1        0.1450
      9 C          43.6385   79.1189   21.3479 C.ar    1  UNL1        0.0372
     10 C          43.6395   77.8218   22.1011 C.ar    1  UNL1       -0.0014
     11 C          43.6399   76.5209   21.3543 C.ar    1  UNL1       -0.0243
     12 C          43.6391   76.7536   19.8725 C.ar    1  UNL1       -0.0052
     13 C          43.6384   78.2492   19.9882 C.ar    1  UNL1        0.0345
     14 C          43.6395   75.4162   19.1932 C.3     1  UNL1        0.0980
     15 C          43.6405   74.3570   20.2552 C.3     1  UNL1        0.0290
     16 C          43.6407   75.0396   21.5908 C.3     1  UNL1        0.0281
     17 N          43.6395   74.4406   18.0538 N.am    1  UNL1       -0.2763
     18 C          43.6401   72.9691   17.7630 C.3     1  UNL1        0.0956
     19 C          43.6396   72.7909   16.2737 C.3     1  UNL1        0.0466
     20 C          43.6384   74.0910   15.1323 C.3     1  UNL1        0.1337
     21 N          43.6374   74.7703   13.7949 N.3     1  UNL1       -0.2863
     22 C          43.6364   75.9097   12.8193 C.3     1  UNL1        0.1151
     23 C          43.6355   77.3357   12.3539 C.ar    1  UNL1        0.0739
     24 C          43.6350   76.9836   10.8958 C.ar    1  UNL1        0.1147
     25 N          43.6340   78.2616   10.1104 N.ar    1  UNL1       -0.2226
     26 C          43.6338   79.4035   11.0831 C.ar    1  UNL1        0.1786
     27 N          43.6348   78.8312   12.4697 N.ar    1  UNL1       -0.3070
     28 C          43.6344   80.1686   13.1490 C.3     1  UNL1        0.1341
     29 C          43.6391   73.9752   16.6278 C.2     1  UNL1        0.2401
     30 O          43.6396   73.2302   16.9112 O.2     1  UNL1       -0.2734
     31 H          42.8047   74.3070   13.4313 H       1  UNL1        0.1240
     32 N          43.6346   84.7811   19.4331 N.1     1  UNL1       -0.1907
     33 C          43.6347   83.8822   18.2324 C.1     1  UNL1        0.1035
@<TRIPOS>BOND
     1    32    33    3
     2    33     1    1
     3     1     2   ar
     4     2     3   ar
     5     3     4   ar
     6     4     5   ar
     7     5     6   ar
     8     6     7    1
     9     7     8    1
    10     8     9   ar
    11     9    10   ar
    12    10    11   ar
    13    11    12   ar
    14    12    13   ar
    15    12    14    1
    16    14    15    1
    17    15    16    1
    18    14    17    1
    19    17    18    1
    20    18    19    1
    21    20    19    1
    22    20    21    1
    23    21    22    1
    24    22    23    1
    25    23    24   ar
    26    24    25   ar
    27    25    26   ar
    28    26    27   ar
    29    27    28    1
    30    20    29    1
    31    29    30    2
    32     6     1   ar
    33    13     8   ar
    34    29    17   am
    35    28     4    1
    36    16    11    1
    37    27    23   ar
    38    21    31    1
@<TRIPOS>MOLECULE
*****
 33 38 0 0 0
SMALL
GASTEIGER

@<TRIPOS>ATOM
      1 C          43.6729   79.3381   10.8469 C.ar    1  UNL1        0.1028
      2 C          43.6799   77.9725   10.2265 C.ar    1  UNL1        0.0131
      3 C          43.6826   76.7523   11.0989 C.ar    1  UNL1       -0.0015
      4 C          43.6795   76.5551   12.6251 C.ar    1  UNL1        0.0035
      5 C          43.6749   77.9910   12.1913 C.ar    1  UNL1        0.0358
      6 C          43.6685   79.4836   12.3398 C.ar    1  UNL1        0.1545
      7 O          43.6614   80.8056   13.0483 O.3     1  UNL1       -0.4528
      8 C          43.6546   81.7561   14.2088 C.ar    1  UNL1        0.1450
      9 C          43.6458   83.5684   14.8050 C.ar    1  UNL1        0.0372
     10 C          43.6396   84.2929   16.1184 C.ar    1  UNL1       -0.0014
     11 C          43.6395   83.5177   17.4025 C.ar    1  UNL1       -0.0243
     12 C          43.6461   82.0413   17.1373 C.ar    1  UNL1       -0.0052
     13 C          43.6492   82.1899   15.6447 C.ar    1  UNL1        0.0345
     14 C          43.6456   81.3328   18.4595 C.3     1  UNL1        0.0980
     15 C          43.6386   82.3713   19.5418 C.3     1  UNL1        0.0290
     16 C          43.6349   83.7216   18.8887 C.3     1  UNL1        0.0281
     17 N          43.6478   80.1723   19.4098 N.am    1  UNL1       -0.2763
     18 C          43.6454   79.8492   20.8746 C.3     1  UNL1        0.0956
     19 C          43.6510   78.3564   21.0201 C.3     1  UNL1        0.0466
     20 C          43.6588   77.2438   19.6951 C.3     1  UNL1        0.1337
     21 N          43.6659   75.9217   18.9866 N.3     1  UNL1       -0.2863
     22 C          43.6727   74.9714   17.8261 C.3     1  UNL1        0.1151
     23 C          43.6781   74.5374   16.3902 C.ar    1  UNL1        0.0739
     24 C          43.6832   73.0720   16.7102 C.ar    1  UNL1        0.1147
     25 N          43.6895   72.3149   15.4153 N.ar    1  UNL1       -0.2226
     26 C          43.6883   73.3125   14.2950 C.ar    1  UNL1        0.1786
     27 N          43.6813   74.6861   14.8976 N.ar    1  UNL1       -0.3070
     28 C          43.6818   75.3946   13.5755 C.3     1  UNL1        0.1341
     29 C          43.6525   78.7364   19.8438 C.2     1  UNL1        0.2401
     30 O          43.6495   79.0034   20.5949 O.2     1  UNL1       -0.2734
     31 H          42.8335   75.5443   19.4393 H       1  UNL1        0.1240
     32 N          43.6676   81.7786    9.1022 N.1     1  UNL1       -0.1907
     33 C          43.6702   80.5583    9.9745 C.1     1  UNL1        0.1035
@<TRIPOS>BOND
     1    32    33    3
     2    33     1    1
     3     1     2   ar
     4     2     3   ar
     5     3     4   ar
     6     4     5   ar
     7     5     6   ar
     8     6     7    1
     9     7     8    1
    10     8     9   ar
    11     9    10   ar
    12    10    11   ar
    13    11    12   ar
    14    12    13   ar
    15    12    14    1
    16    14    15    1
    17    15    16    1
    18    14    17    1
    19    17    18    1
    20    18    19    1
    21    20    19    1
    22    20    21    1
    23    21    22    1
    24    22    23    1
    25    23    24   ar
    26    24    25   ar
    27    25    26   ar
    28    26    27   ar
    29    27    28    1
    30    20    29    1
    31    29    30    2
    32     6     1   ar
    33    13     8   ar
    34    29    17   am
    35    28     4    1
    36    16    11    1
    37    27    23   ar
    38    21    31    1
