@<TRIPOS>MOLECULE
*****
 39 43 0 0 0
SMALL
GASTEIGER

@<TRIPOS>ATOM
      1 N          63.7293   82.6708   14.4279 N.3     1  UNL1       -0.2682
      2 C          62.3559   82.9403   14.9674 C.3     1  UNL1        0.0897
      3 C          62.0815   84.2080   15.7208 C.3     1  UNL1        0.0900
      4 N          63.1805   85.2061   15.9347 N.3     1  UNL1       -0.2626
      5 C          64.5539   84.9366   15.3953 C.3     1  UNL1        0.0900
      6 C          64.8284   83.6690   14.6419 C.3     1  UNL1        0.0897
      7 C          64.0037   81.4030   13.6745 C.3     1  UNL1        0.1056
      8 C          63.0058   80.8918   12.6781 C.3     1  UNL1        0.1700
      9 O          61.9572   79.9075   13.1043 O.3     1  UNL1       -0.3793
     10 H          62.0646   79.7088   14.0476 H       1  UNL1        0.2106
     11 C          63.0566   81.3649   11.2556 C.3     1  UNL1        0.2358
     12 O          63.9313   82.5246   10.8815 O.3     1  UNL1       -0.4727
     13 C          59.9557   89.2928   10.9752 C.3     1  UNL1        0.0594
     14 C          60.7606   88.0620   10.6799 C.ar    1  UNL1        0.0886
     15 N          61.1049   86.9779   11.6578 N.ar    1  UNL1       -0.2426
     16 C          61.9197   85.9451   10.9371 C.ar    1  UNL1        0.0905
     17 C          62.5371   84.6564   11.3930 C.ar    1  UNL1        0.0565
     18 C          63.3138   83.8134   10.4256 C.ar    1  UNL1        0.1402
     19 C          63.4732   84.2591    9.0023 C.ar    1  UNL1        0.0375
     20 C          62.8558   85.5478    8.5463 C.ar    1  UNL1        0.0111
     21 C          62.0790   86.3908    9.5137 C.ar    1  UNL1        0.0484
     22 S          61.3627   87.6991    9.3548 S.2     1  UNL1       -0.0708
     23 C          62.9061   86.4739   16.6882 C.3     1  UNL1        0.1588
     24 C          63.2871   87.7972   16.0935 C.2     1  UNL1        0.2425
     25 O          63.2149   89.0425   16.9266 O.2     1  UNL1       -0.2733
     26 N          63.7404   87.8752   14.6657 N.am    1  UNL1       -0.2828
     27 H          63.7878   87.0579   14.1190 H       1  UNL1        0.1549
     28 C          64.1214   89.1985   14.0710 C.ar    1  UNL1        0.0503
     29 C          63.3006   89.7865   12.9618 C.ar    1  UNL1        0.0147
     30 C          63.6816   91.1098   12.3671 C.ar    1  UNL1        0.0013
     31 C          64.8835   91.8451   12.8816 C.ar    1  UNL1        0.0001
     32 C          65.7042   91.2572   13.9909 C.ar    1  UNL1        0.0012
     33 C          65.3232   89.9339   14.5856 C.ar    1  UNL1        0.0147
     34 C          66.9061   91.9925   14.5056 C.ar    1  UNL1        0.0000
     35 C          68.2214   91.8699   13.7949 C.ar    1  UNL1        0.0000
     36 C          69.4233   92.6052   14.3095 C.ar    1  UNL1        0.0000
     37 C          69.3099   93.4632   15.5348 C.ar    1  UNL1        0.0000
     38 C          67.9946   93.5857   16.2454 C.ar    1  UNL1        0.0000
     39 C          66.7927   92.8504   15.7308 C.ar    1  UNL1        0.0000
@<TRIPOS>BOND
     1    13    14    1
     2    14    15   ar
     3    15    16   ar
     4    16    17   ar
     5    17    18   ar
     6    18    12    1
     7    12    11    1
     8    11     8    1
     9     8     9    1
    10     8     7    1
    11     7     1    1
    12     1     2    1
    13     2     3    1
    14     3     4    1
    15     4    23    1
    16    23    24    1
    17    24    25    2
    18    24    26   am
    19    26    28    1
    20    28    29   ar
    21    29    30   ar
    22    30    31   ar
    23    31    32   ar
    24    32    34    1
    25    34    35   ar
    26    35    36   ar
    27    36    37   ar
    28    37    38   ar
    29    38    39   ar
    30    32    33   ar
    31     4     5    1
    32     5     6    1
    33    18    19   ar
    34    19    20   ar
    35    20    21   ar
    36    21    22   ar
    37    22    14   ar
    38    21    16   ar
    39     6     1    1
    40    33    28   ar
    41    39    34   ar
    42     9    10    1
    43    26    27    1
@<TRIPOS>MOLECULE
*****
 39 43 0 0 0
SMALL
GASTEIGER

@<TRIPOS>ATOM
      1 N          64.0845   85.0096   15.4374 N.3     1  UNL1       -0.2682
      2 C          63.1825   85.2478   16.6120 C.3     1  UNL1        0.0897
      3 C          62.7506   86.6426   16.9552 C.3     1  UNL1        0.0900
      4 N          63.2206   87.7992   16.1238 N.3     1  UNL1       -0.2626
      5 C          64.1226   87.5610   14.9492 C.3     1  UNL1        0.0900
      6 C          64.5545   86.1662   14.6060 C.3     1  UNL1        0.0897
      7 C          64.5164   83.6146   15.0943 C.3     1  UNL1        0.1056
      8 C          63.5157   82.6267   14.5724 C.3     1  UNL1        0.1700
      9 O          62.2829   82.3160   15.3686 O.3     1  UNL1       -0.3793
     10 H          62.2879   82.8352   16.1879 H       1  UNL1        0.2106
     11 C          63.7476   81.9493   13.2543 C.3     1  UNL1        0.2358
     12 O          64.4751   82.6702   12.1583 O.3     1  UNL1       -0.4727
     13 C          59.8234   88.6237   10.0275 C.3     1  UNL1        0.0594
     14 C          60.7628   87.4609   10.1523 C.ar    1  UNL1        0.0886
     15 N          61.1743   86.7932   11.4309 N.ar    1  UNL1       -0.2426
     16 C          62.1214   85.6814   11.0892 C.ar    1  UNL1        0.0905
     17 C          62.8481   84.6842   11.9422 C.ar    1  UNL1        0.0565
     18 C          63.7485   83.6675   11.3054 C.ar    1  UNL1        0.1402
     19 C          63.9223   83.6480    9.8156 C.ar    1  UNL1        0.0375
     20 C          63.1956   84.6452    8.9627 C.ar    1  UNL1        0.0111
     21 C          62.2952   85.6619    9.5995 C.ar    1  UNL1        0.0484
     22 S          61.4555   86.7617    9.0204 S.2     1  UNL1       -0.0708
     23 C          62.7887   89.1942   16.4670 C.3     1  UNL1        0.1588
     24 C          63.6615   90.3596   16.1065 C.2     1  UNL1        0.2425
     25 O          63.4789   91.6765   16.8012 O.2     1  UNL1       -0.2733
     26 N          64.7170   90.2082   15.0515 N.am    1  UNL1       -0.2828
     27 H          64.8368   89.3439   14.5956 H       1  UNL1        0.1549
     28 C          65.5898   91.3736   14.6911 C.ar    1  UNL1        0.0503
     29 C          66.1438   92.2573   15.7691 C.ar    1  UNL1        0.0147
     30 C          67.0167   93.4228   15.4086 C.ar    1  UNL1        0.0013
     31 C          67.3355   93.7045   13.9703 C.ar    1  UNL1        0.0001
     32 C          66.7815   92.8207   12.8923 C.ar    1  UNL1        0.0012
     33 C          65.9086   91.6553   13.2527 C.ar    1  UNL1        0.0147
     34 C          67.1003   93.1024   11.4539 C.ar    1  UNL1        0.0000
     35 C          66.5467   94.3277   10.7890 C.ar    1  UNL1        0.0000
     36 C          66.8654   94.6094    9.3506 C.ar    1  UNL1        0.0000
     37 C          67.7379   93.6657    8.5770 C.ar    1  UNL1        0.0000
     38 C          68.2916   92.4404    9.2419 C.ar    1  UNL1        0.0000
     39 C          67.9728   92.1587   10.6804 C.ar    1  UNL1        0.0000
@<TRIPOS>BOND
     1    13    14    1
     2    14    15   ar
     3    15    16   ar
     4    16    17   ar
     5    17    18   ar
     6    18    12    1
     7    12    11    1
     8    11     8    1
     9     8     9    1
    10     8     7    1
    11     7     1    1
    12     1     2    1
    13     2     3    1
    14     3     4    1
    15     4    23    1
    16    23    24    1
    17    24    25    2
    18    24    26   am
    19    26    28    1
    20    28    29   ar
    21    29    30   ar
    22    30    31   ar
    23    31    32   ar
    24    32    34    1
    25    34    35   ar
    26    35    36   ar
    27    36    37   ar
    28    37    38   ar
    29    38    39   ar
    30    32    33   ar
    31     4     5    1
    32     5     6    1
    33    18    19   ar
    34    19    20   ar
    35    20    21   ar
    36    21    22   ar
    37    22    14   ar
    38    21    16   ar
    39     6     1    1
    40    33    28   ar
    41    39    34   ar
    42     9    10    1
    43    26    27    1
@<TRIPOS>MOLECULE
*****
 39 43 0 0 0
SMALL
GASTEIGER

@<TRIPOS>ATOM
      1 N          60.1743   86.8720    8.5852 N.3     1  UNL1       -0.2682
      2 C          60.4837   86.4335    9.9859 C.3     1  UNL1        0.0897
      3 C          60.6739   87.4556   11.0671 C.3     1  UNL1        0.0900
      4 N          60.5547   88.9163   10.7476 N.3     1  UNL1       -0.2626
      5 C          60.2453   89.3548    9.3469 C.3     1  UNL1        0.0900
      6 C          60.0550   88.3327    8.2657 C.3     1  UNL1        0.0897
      7 C          59.9840   85.8498    7.5040 C.3     1  UNL1        0.1056
      8 C          61.1505   85.0357    7.0280 C.3     1  UNL1        0.1700
      9 O          60.9836   84.0870    5.8781 O.3     1  UNL1       -0.3793
     10 H          60.0677   84.1218    5.5606 H       1  UNL1        0.2106
     11 C          62.4838   85.1702    7.7019 C.3     1  UNL1        0.2358
     12 O          63.1970   83.9497    8.2038 O.3     1  UNL1       -0.4727
     13 C          63.5357   85.4676   15.8982 C.3     1  UNL1        0.0594
     14 C          63.6144   84.9377   14.4972 C.ar    1  UNL1        0.0886
     15 N          63.0596   85.6006   13.2713 N.ar    1  UNL1       -0.2426
     16 C          63.3640   84.7244   12.0925 C.ar    1  UNL1        0.0905
     17 C          63.0607   84.8677   10.6305 C.ar    1  UNL1        0.0565
     18 C          63.5003   83.8065    9.6659 C.ar    1  UNL1        0.1402
     19 C          64.2432   82.6020   10.1632 C.ar    1  UNL1        0.0375
     20 C          64.5465   82.4587   11.6252 C.ar    1  UNL1        0.0111
     21 C          64.1069   83.5199   12.5898 C.ar    1  UNL1        0.0484
     22 S          64.2617   83.6517   14.0760 S.2     1  UNL1       -0.0708
     23 C          60.7449   89.9385   11.8288 C.3     1  UNL1        0.1588
     24 C          62.0727   90.6163   11.9949 C.2     1  UNL1        0.2425
     25 O          62.6549   91.4127   10.8647 O.2     1  UNL1       -0.2733
     26 N          62.8184   90.4978   13.2910 N.am    1  UNL1       -0.2828
     27 H          62.4363   89.9752   14.0327 H       1  UNL1        0.1549
     28 C          64.1462   91.1756   13.4570 C.ar    1  UNL1        0.0503
     29 C          64.8536   91.1258   14.7788 C.ar    1  UNL1        0.0147
     30 C          66.1814   91.8036   14.9448 C.ar    1  UNL1        0.0013
     31 C          66.8018   92.5312   13.7891 C.ar    1  UNL1        0.0001
     32 C          66.0944   92.5810   12.4674 C.ar    1  UNL1        0.0012
     33 C          64.7666   91.9032   12.3013 C.ar    1  UNL1        0.0147
     34 C          66.7148   93.3087   11.3116 C.ar    1  UNL1        0.0000
     35 C          66.4840   94.7810   11.1413 C.ar    1  UNL1        0.0000
     36 C          67.1043   95.5086    9.9856 C.ar    1  UNL1        0.0000
     37 C          67.9555   94.7639    9.0002 C.ar    1  UNL1        0.0000
     38 C          68.1863   93.2916    9.1705 C.ar    1  UNL1        0.0000
     39 C          67.5659   92.5640   10.3263 C.ar    1  UNL1        0.0000
@<TRIPOS>BOND
     1    13    14    1
     2    14    15   ar
     3    15    16   ar
     4    16    17   ar
     5    17    18   ar
     6    18    12    1
     7    12    11    1
     8    11     8    1
     9     8     9    1
    10     8     7    1
    11     7     1    1
    12     1     2    1
    13     2     3    1
    14     3     4    1
    15     4    23    1
    16    23    24    1
    17    24    25    2
    18    24    26   am
    19    26    28    1
    20    28    29   ar
    21    29    30   ar
    22    30    31   ar
    23    31    32   ar
    24    32    34    1
    25    34    35   ar
    26    35    36   ar
    27    36    37   ar
    28    37    38   ar
    29    38    39   ar
    30    32    33   ar
    31     4     5    1
    32     5     6    1
    33    18    19   ar
    34    19    20   ar
    35    20    21   ar
    36    21    22   ar
    37    22    14   ar
    38    21    16   ar
    39     6     1    1
    40    33    28   ar
    41    39    34   ar
    42     9    10    1
    43    26    27    1
@<TRIPOS>MOLECULE
*****
 39 43 0 0 0
SMALL
GASTEIGER

@<TRIPOS>ATOM
      1 N          63.8073   84.1438   15.4280 N.3     1  UNL1       -0.2682
      2 C          62.7988   84.7009   16.3885 C.3     1  UNL1        0.0897
      3 C          62.7240   86.1806   16.6230 C.3     1  UNL1        0.0900
      4 N          63.6578   87.1031   15.8971 N.3     1  UNL1       -0.2626
      5 C          64.6663   86.5459   14.9366 C.3     1  UNL1        0.0900
      6 C          64.7411   85.0663   14.7021 C.3     1  UNL1        0.0897
      7 C          63.8821   82.6641   15.1935 C.3     1  UNL1        0.1056
      8 C          62.9531   82.0123   14.2126 C.3     1  UNL1        0.1700
      9 O          61.5673   81.6243   14.6359 O.3     1  UNL1       -0.3793
     10 H          61.4348   81.8629   15.5667 H       1  UNL1        0.2106
     11 C          63.4098   81.7486   12.8084 C.3     1  UNL1        0.2358
     12 O          64.2312   82.7723   12.0821 O.3     1  UNL1       -0.4727
     13 C          59.6394   88.4469    9.1948 C.3     1  UNL1        0.0594
     14 C          60.6025   87.3312    9.4734 C.ar    1  UNL1        0.0886
     15 N          60.8810   86.7213   10.8152 N.ar    1  UNL1       -0.2426
     16 C          61.9068   85.6427   10.6302 C.ar    1  UNL1        0.0905
     17 C          62.5631   84.7048   11.5996 C.ar    1  UNL1        0.0565
     18 C          63.5748   83.7102   11.1128 C.ar    1  UNL1        0.1402
     19 C          63.9303   83.6534    9.6566 C.ar    1  UNL1        0.0375
     20 C          63.2740   84.5912    8.6872 C.ar    1  UNL1        0.0111
     21 C          62.2622   85.5859    9.1740 C.ar    1  UNL1        0.0484
     22 S          61.4561   86.6294    8.4591 S.2     1  UNL1       -0.0708
     23 C          63.5831   88.5828   16.1316 C.3     1  UNL1        0.1588
     24 C          63.4728   89.5220   14.9673 C.2     1  UNL1        0.2425
     25 O          63.2872   90.9916   15.2041 O.2     1  UNL1       -0.2733
     26 N          63.5481   88.9918   13.5662 N.am    1  UNL1       -0.2828
     27 H          63.6699   88.0273   13.4108 H       1  UNL1        0.1549
     28 C          63.4378   89.9310   12.4019 C.ar    1  UNL1        0.0503
     29 C          62.1916   89.9477   11.5672 C.ar    1  UNL1        0.0147
     30 C          62.0813   90.8870   10.4029 C.ar    1  UNL1        0.0013
     31 C          63.2172   91.8095   10.0732 C.ar    1  UNL1        0.0001
     32 C          64.4634   91.7927   10.9078 C.ar    1  UNL1        0.0012
     33 C          64.5737   90.8535   12.0722 C.ar    1  UNL1        0.0147
     34 C          65.5994   92.7152   10.5782 C.ar    1  UNL1        0.0000
     35 C          65.4533   94.1922   10.7955 C.ar    1  UNL1        0.0000
     36 C          66.5892   95.1147   10.4659 C.ar    1  UNL1        0.0000
     37 C          67.8712   94.5603    9.9189 C.ar    1  UNL1        0.0000
     38 C          68.0173   93.0833    9.7016 C.ar    1  UNL1        0.0000
     39 C          66.8813   92.1608   10.0313 C.ar    1  UNL1        0.0000
@<TRIPOS>BOND
     1    13    14    1
     2    14    15   ar
     3    15    16   ar
     4    16    17   ar
     5    17    18   ar
     6    18    12    1
     7    12    11    1
     8    11     8    1
     9     8     9    1
    10     8     7    1
    11     7     1    1
    12     1     2    1
    13     2     3    1
    14     3     4    1
    15     4    23    1
    16    23    24    1
    17    24    25    2
    18    24    26   am
    19    26    28    1
    20    28    29   ar
    21    29    30   ar
    22    30    31   ar
    23    31    32   ar
    24    32    34    1
    25    34    35   ar
    26    35    36   ar
    27    36    37   ar
    28    37    38   ar
    29    38    39   ar
    30    32    33   ar
    31     4     5    1
    32     5     6    1
    33    18    19   ar
    34    19    20   ar
    35    20    21   ar
    36    21    22   ar
    37    22    14   ar
    38    21    16   ar
    39     6     1    1
    40    33    28   ar
    41    39    34   ar
    42     9    10    1
    43    26    27    1
@<TRIPOS>MOLECULE
*****
 39 43 0 0 0
SMALL
GASTEIGER

@<TRIPOS>ATOM
      1 N          63.8930   82.9308   13.9900 N.3     1  UNL1       -0.2682
      2 C          62.5212   82.8174   14.5862 C.3     1  UNL1        0.0897
      3 C          62.0352   83.8565   15.5526 C.3     1  UNL1        0.0900
      4 N          62.9209   85.0091   15.9228 N.3     1  UNL1       -0.2626
      5 C          64.2926   85.1225   15.3266 C.3     1  UNL1        0.0900
      6 C          64.7787   84.0834   14.3602 C.3     1  UNL1        0.0897
      7 C          64.3790   81.8916   13.0236 C.3     1  UNL1        0.1056
      8 C          63.4088   81.2091   12.1055 C.3     1  UNL1        0.1700
      9 O          62.5807   80.0632   12.6070 O.3     1  UNL1       -0.3793
     10 H          62.7938   79.8934   13.5379 H       1  UNL1        0.2106
     11 C          63.2666   81.6724   10.6860 C.3     1  UNL1        0.2358
     12 O          64.0169   82.8821   10.2131 O.3     1  UNL1       -0.4727
     13 C          59.7238   89.3464   11.3987 C.3     1  UNL1        0.0594
     14 C          60.5545   88.2017   10.8990 C.ar    1  UNL1        0.0886
     15 N          61.0637   87.0563   11.7228 N.ar    1  UNL1       -0.2426
     16 C          61.8458   86.1481   10.8207 C.ar    1  UNL1        0.0905
     17 C          62.5781   84.8648   11.0786 C.ar    1  UNL1        0.0565
     18 C          63.2845   84.1656    9.9552 C.ar    1  UNL1        0.1402
     19 C          63.2586   84.7498    8.5739 C.ar    1  UNL1        0.0375
     20 C          62.5262   86.0332    8.3160 C.ar    1  UNL1        0.0111
     21 C          61.8198   86.7323    9.4394 C.ar    1  UNL1        0.0484
     22 S          61.0218   88.0015    9.4878 S.2     1  UNL1       -0.0708
     23 C          62.4349   86.0483   16.8892 C.3     1  UNL1        0.1588
     24 C          62.9808   87.4440   16.8270 C.2     1  UNL1        0.2425
     25 O          63.1951   88.2226   18.0912 O.2     1  UNL1       -0.2733
     26 N          63.3125   88.0612   15.5008 N.am    1  UNL1       -0.2828
     27 H          63.1719   87.5502   14.6711 H       1  UNL1        0.1549
     28 C          63.8585   89.4569   15.4386 C.ar    1  UNL1        0.0503
     29 C          63.6729   90.3873   16.6004 C.ar    1  UNL1        0.0147
     30 C          64.2188   91.7831   16.5382 C.ar    1  UNL1        0.0013
     31 C          64.9504   92.2484   15.3142 C.ar    1  UNL1        0.0001
     32 C          65.1359   91.3180   14.1523 C.ar    1  UNL1        0.0012
     33 C          64.5900   89.9223   14.2145 C.ar    1  UNL1        0.0147
     34 C          65.8675   91.7833   12.9282 C.ar    1  UNL1        0.0000
     35 C          67.3674   91.7899   12.9080 C.ar    1  UNL1        0.0000
     36 C          68.0989   92.2552   11.6840 C.ar    1  UNL1        0.0000
     37 C          67.3306   92.7139   10.4801 C.ar    1  UNL1        0.0000
     38 C          65.8308   92.7074   10.5003 C.ar    1  UNL1        0.0000
     39 C          65.0992   92.2420   11.7244 C.ar    1  UNL1        0.0000
@<TRIPOS>BOND
     1    13    14    1
     2    14    15   ar
     3    15    16   ar
     4    16    17   ar
     5    17    18   ar
     6    18    12    1
     7    12    11    1
     8    11     8    1
     9     8     9    1
    10     8     7    1
    11     7     1    1
    12     1     2    1
    13     2     3    1
    14     3     4    1
    15     4    23    1
    16    23    24    1
    17    24    25    2
    18    24    26   am
    19    26    28    1
    20    28    29   ar
    21    29    30   ar
    22    30    31   ar
    23    31    32   ar
    24    32    34    1
    25    34    35   ar
    26    35    36   ar
    27    36    37   ar
    28    37    38   ar
    29    38    39   ar
    30    32    33   ar
    31     4     5    1
    32     5     6    1
    33    18    19   ar
    34    19    20   ar
    35    20    21   ar
    36    21    22   ar
    37    22    14   ar
    38    21    16   ar
    39     6     1    1
    40    33    28   ar
    41    39    34   ar
    42     9    10    1
    43    26    27    1
@<TRIPOS>MOLECULE
*****
 39 43 0 0 0
SMALL
GASTEIGER

@<TRIPOS>ATOM
      1 N          59.3097   88.9956    7.0609 N.3     1  UNL1       -0.2682
      2 C          59.3359   87.5602    7.4957 C.3     1  UNL1        0.0897
      3 C          59.8279   87.2006    8.8663 C.3     1  UNL1        0.0900
      4 N          60.2938   88.2763    9.8020 N.3     1  UNL1       -0.2626
      5 C          60.2677   89.7116    9.3673 C.3     1  UNL1        0.0900
      6 C          59.7756   90.0713    7.9967 C.3     1  UNL1        0.0897
      7 C          58.8177   89.3552    5.6902 C.3     1  UNL1        0.1056
      8 C          58.1768   90.6899    5.4498 C.3     1  UNL1        0.1700
      9 O          56.6841   90.8266    5.5087 O.3     1  UNL1       -0.3793
     10 H          56.2882   89.9646    5.7115 H       1  UNL1        0.2106
     11 C          59.0284   91.8878    5.1503 C.3     1  UNL1        0.2358
     12 O          59.1408   92.3953    3.7432 O.3     1  UNL1       -0.4727
     13 C          64.8955   95.2862   -0.7455 C.3     1  UNL1        0.0594
     14 C          63.9992   94.5542    0.2089 C.ar    1  UNL1        0.0886
     15 N          62.5417   94.8272    0.4352 N.ar    1  UNL1       -0.2426
     16 C          62.0447   93.8624    1.4706 C.ar    1  UNL1        0.0905
     17 C          60.6933   93.6632    2.0903 C.ar    1  UNL1        0.0565
     18 C          60.4922   92.5946    3.1235 C.ar    1  UNL1        0.1402
     19 C          61.6425   91.7253    3.5372 C.ar    1  UNL1        0.0375
     20 C          62.9939   91.9245    2.9175 C.ar    1  UNL1        0.0111
     21 C          63.1950   92.9931    1.8843 C.ar    1  UNL1        0.0484
     22 S          64.4029   93.4207    1.1044 S.2     1  UNL1       -0.0708
     23 C          60.7858   87.9166   11.1727 C.3     1  UNL1        0.1588
     24 C          62.0270   88.5598   11.7167 C.2     1  UNL1        0.2425
     25 O          63.1444   87.7082   12.2423 O.2     1  UNL1       -0.2733
     26 N          62.1507   90.0546   11.7350 N.am    1  UNL1       -0.2828
     27 H          61.4173   90.6135   11.3900 H       1  UNL1        0.1549
     28 C          63.3918   90.6978   12.2790 C.ar    1  UNL1        0.0503
     29 C          63.8004   90.4552   13.7017 C.ar    1  UNL1        0.0147
     30 C          65.0415   91.0984   14.2457 C.ar    1  UNL1        0.0013
     31 C          65.8740   91.9842   13.3670 C.ar    1  UNL1        0.0001
     32 C          65.4655   92.2268   11.9443 C.ar    1  UNL1        0.0012
     33 C          64.2243   91.5836   11.4003 C.ar    1  UNL1        0.0147
     34 C          66.2980   93.1127   11.0655 C.ar    1  UNL1        0.0000
     35 C          66.0626   94.5940   11.0556 C.ar    1  UNL1        0.0000
     36 C          66.8951   95.4799   10.1769 C.ar    1  UNL1        0.0000
     37 C          67.9630   94.8844    9.3079 C.ar    1  UNL1        0.0000
     38 C          68.1983   93.4030    9.3178 C.ar    1  UNL1        0.0000
     39 C          67.3658   92.5171   10.1966 C.ar    1  UNL1        0.0000
@<TRIPOS>BOND
     1    13    14    1
     2    14    15   ar
     3    15    16   ar
     4    16    17   ar
     5    17    18   ar
     6    18    12    1
     7    12    11    1
     8    11     8    1
     9     8     9    1
    10     8     7    1
    11     7     1    1
    12     1     2    1
    13     2     3    1
    14     3     4    1
    15     4    23    1
    16    23    24    1
    17    24    25    2
    18    24    26   am
    19    26    28    1
    20    28    29   ar
    21    29    30   ar
    22    30    31   ar
    23    31    32   ar
    24    32    34    1
    25    34    35   ar
    26    35    36   ar
    27    36    37   ar
    28    37    38   ar
    29    38    39   ar
    30    32    33   ar
    31     4     5    1
    32     5     6    1
    33    18    19   ar
    34    19    20   ar
    35    20    21   ar
    36    21    22   ar
    37    22    14   ar
    38    21    16   ar
    39     6     1    1
    40    33    28   ar
    41    39    34   ar
    42     9    10    1
    43    26    27    1
@<TRIPOS>MOLECULE
*****
 39 43 0 0 0
SMALL
GASTEIGER

@<TRIPOS>ATOM
      1 N          63.1366   88.9484   12.9957 N.3     1  UNL1       -0.2682
      2 C          63.1503   87.5851   12.3703 C.3     1  UNL1        0.0897
      3 C          62.2253   87.2730   11.2315 C.3     1  UNL1        0.0900
      4 N          61.2866   88.3243   10.7180 N.3     1  UNL1       -0.2626
      5 C          61.2729   89.6876   11.3434 C.3     1  UNL1        0.0900
      6 C          62.1979   89.9997   12.4823 C.3     1  UNL1        0.0897
      7 C          64.0616   89.2605   14.1346 C.3     1  UNL1        0.1056
      8 C          63.5037   89.5450   15.4976 C.3     1  UNL1        0.1700
      9 O          63.6476   90.9128   16.0964 O.3     1  UNL1       -0.3793
     10 H          64.1221   91.4888   15.4766 H       1  UNL1        0.2106
     11 C          62.8018   88.4618   16.2618 C.3     1  UNL1        0.2358
     12 O          63.5745   87.2802   16.7688 O.3     1  UNL1       -0.4727
     13 C          62.1430   80.3700   13.3304 C.3     1  UNL1        0.0594
     14 C          62.6595   81.6855   13.8330 C.ar    1  UNL1        0.0886
     15 N          61.9746   82.5822   14.8213 N.ar    1  UNL1       -0.2426
     16 C          62.8434   83.7862   15.0347 C.ar    1  UNL1        0.0905
     17 C          62.6798   85.0017   15.8982 C.ar    1  UNL1        0.0565
     18 C          63.7381   86.0646   15.9052 C.ar    1  UNL1        0.1402
     19 C          64.9601   85.9120   15.0488 C.ar    1  UNL1        0.0375
     20 C          65.1237   84.6965   14.1853 C.ar    1  UNL1        0.0111
     21 C          64.0654   83.6336   14.1783 C.ar    1  UNL1        0.0484
     22 S          63.9517   82.3353   13.4356 S.2     1  UNL1       -0.0708
     23 C          60.3616   88.0122    9.5791 C.3     1  UNL1        0.1588
     24 C          59.9690   89.0917    8.6145 C.2     1  UNL1        0.2425
     25 O          59.7698   90.4965    9.1013 O.2     1  UNL1       -0.2733
     26 N          59.7755   88.7664    7.1630 N.am    1  UNL1       -0.2828
     27 H          59.9062   87.8444    6.8435 H       1  UNL1        0.1549
     28 C          59.3829   89.8459    6.1984 C.ar    1  UNL1        0.0503
     29 C          57.9587   90.3123    6.1337 C.ar    1  UNL1        0.0147
     30 C          57.5661   91.3918    5.1691 C.ar    1  UNL1        0.0013
     31 C          58.5976   92.0048    4.2691 C.ar    1  UNL1        0.0001
     32 C          60.0217   91.5384    4.3337 C.ar    1  UNL1        0.0012
     33 C          60.4144   90.4590    5.2984 C.ar    1  UNL1        0.0147
     34 C          61.0533   92.1515    3.4336 C.ar    1  UNL1        0.0000
     35 C          62.4449   91.5926    3.3979 C.ar    1  UNL1        0.0000
     36 C          63.4765   92.2056    2.4979 C.ar    1  UNL1        0.0000
     37 C          63.1165   93.3776    1.6336 C.ar    1  UNL1        0.0000
     38 C          61.7250   93.9365    1.6693 C.ar    1  UNL1        0.0000
     39 C          60.6934   93.3234    2.5694 C.ar    1  UNL1        0.0000
@<TRIPOS>BOND
     1    13    14    1
     2    14    15   ar
     3    15    16   ar
     4    16    17   ar
     5    17    18   ar
     6    18    12    1
     7    12    11    1
     8    11     8    1
     9     8     9    1
    10     8     7    1
    11     7     1    1
    12     1     2    1
    13     2     3    1
    14     3     4    1
    15     4    23    1
    16    23    24    1
    17    24    25    2
    18    24    26   am
    19    26    28    1
    20    28    29   ar
    21    29    30   ar
    22    30    31   ar
    23    31    32   ar
    24    32    34    1
    25    34    35   ar
    26    35    36   ar
    27    36    37   ar
    28    37    38   ar
    29    38    39   ar
    30    32    33   ar
    31     4     5    1
    32     5     6    1
    33    18    19   ar
    34    19    20   ar
    35    20    21   ar
    36    21    22   ar
    37    22    14   ar
    38    21    16   ar
    39     6     1    1
    40    33    28   ar
    41    39    34   ar
    42     9    10    1
    43    26    27    1
@<TRIPOS>MOLECULE
*****
 39 43 0 0 0
SMALL
GASTEIGER

@<TRIPOS>ATOM
      1 N          61.4522   87.0598    9.5181 N.3     1  UNL1       -0.2682
      2 C          61.7188   88.4602    9.9847 C.3     1  UNL1        0.0897
      3 C          62.3674   88.6963   11.3164 C.3     1  UNL1        0.0900
      4 N          62.7493   87.5320   12.1815 N.3     1  UNL1       -0.2626
      5 C          62.4827   86.1316   11.7149 C.3     1  UNL1        0.0900
      6 C          61.8342   85.8955   10.3832 C.3     1  UNL1        0.0897
      7 C          60.8036   86.8237    8.1862 C.3     1  UNL1        0.1056
      8 C          59.5547   87.5683    7.8178 C.3     1  UNL1        0.1700
      9 O          58.2616   86.8269    7.6495 O.3     1  UNL1       -0.3793
     10 H          58.4070   85.8819    7.8134 H       1  UNL1        0.2106
     11 C          59.5988   89.0542    7.6175 C.3     1  UNL1        0.2358
     12 O          58.7057   89.7008    6.6006 O.3     1  UNL1       -0.4727
     13 C          63.9079   93.0093    1.7411 C.3     1  UNL1        0.0594
     14 C          62.7253   92.5550    2.5443 C.ar    1  UNL1        0.0886
     15 N          62.7362   91.4995    3.6100 N.ar    1  UNL1       -0.2426
     16 C          61.3418   91.3685    4.1471 C.ar    1  UNL1        0.0905
     17 C          60.7540   90.4878    5.2095 C.ar    1  UNL1        0.0565
     18 C          59.2935   90.5816    5.5381 C.ar    1  UNL1        0.1402
     19 C          58.4208   91.5562    4.8043 C.ar    1  UNL1        0.0375
     20 C          59.0085   92.4369    3.7419 C.ar    1  UNL1        0.0111
     21 C          60.4690   92.3431    3.4133 C.ar    1  UNL1        0.0484
     22 S          61.3241   93.0764    2.4227 S.2     1  UNL1       -0.0708
     23 C          63.3979   87.7681   13.5134 C.3     1  UNL1        0.1588
     24 C          64.2216   89.0013   13.7383 C.2     1  UNL1        0.2425
     25 O          65.2086   89.0484   14.8670 O.2     1  UNL1       -0.2733
     26 N          64.0584   90.1874   12.8347 N.am    1  UNL1       -0.2828
     27 H          63.4107   90.1564   12.0940 H       1  UNL1        0.1549
     28 C          64.8822   91.4206   13.0597 C.ar    1  UNL1        0.0503
     29 C          65.3681   91.7568   14.4384 C.ar    1  UNL1        0.0147
     30 C          66.1918   92.9900   14.6633 C.ar    1  UNL1        0.0013
     31 C          66.5296   93.8871   13.5096 C.ar    1  UNL1        0.0001
     32 C          66.0437   93.5509   12.1309 C.ar    1  UNL1        0.0012
     33 C          65.2200   92.3177   11.9059 C.ar    1  UNL1        0.0147
     34 C          66.3816   94.4480   10.9771 C.ar    1  UNL1        0.0000
     35 C          65.8273   95.8407   10.9226 C.ar    1  UNL1        0.0000
     36 C          66.1651   96.7378    9.7689 C.ar    1  UNL1        0.0000
     37 C          67.0572   96.2421    8.6695 C.ar    1  UNL1        0.0000
     38 C          67.6114   94.8493    8.7240 C.ar    1  UNL1        0.0000
     39 C          67.2736   93.9522    9.8778 C.ar    1  UNL1        0.0000
@<TRIPOS>BOND
     1    13    14    1
     2    14    15   ar
     3    15    16   ar
     4    16    17   ar
     5    17    18   ar
     6    18    12    1
     7    12    11    1
     8    11     8    1
     9     8     9    1
    10     8     7    1
    11     7     1    1
    12     1     2    1
    13     2     3    1
    14     3     4    1
    15     4    23    1
    16    23    24    1
    17    24    25    2
    18    24    26   am
    19    26    28    1
    20    28    29   ar
    21    29    30   ar
    22    30    31   ar
    23    31    32   ar
    24    32    34    1
    25    34    35   ar
    26    35    36   ar
    27    36    37   ar
    28    37    38   ar
    29    38    39   ar
    30    32    33   ar
    31     4     5    1
    32     5     6    1
    33    18    19   ar
    34    19    20   ar
    35    20    21   ar
    36    21    22   ar
    37    22    14   ar
    38    21    16   ar
    39     6     1    1
    40    33    28   ar
    41    39    34   ar
    42     9    10    1
    43    26    27    1
