@<TRIPOS>MOLECULE
*****
 33 37 0 0 0
SMALL
GASTEIGER

@<TRIPOS>ATOM
      1 C          62.8590   90.0474   12.0438 C.ar    1  UNL1        0.0846
      2 C          61.8221   90.8800   11.3499 C.ar    1  UNL1        0.0370
      3 C          61.1230   90.0095   10.3482 C.ar    1  UNL1        0.0967
      4 N          61.7278   88.6389   10.4231 N.ar    1  UNL1       -0.2452
      5 N          62.8007   88.6624   11.4710 N.ar    1  UNL1       -0.1730
      6 C          63.7907   90.5174   13.1214 C.3     1  UNL1        0.0757
      7 N          66.0173   93.8118    9.7763 N.pl3   1  UNL1       -0.3441
      8 C          65.8794   93.2690   11.1678 C.ar    1  UNL1        0.1035
      9 C          64.9041   92.1646   11.4488 C.ar    1  UNL1        0.0297
     10 C          64.7661   91.6218   12.8404 C.ar    1  UNL1        0.0090
     11 C          65.6036   92.1834   13.9509 C.ar    1  UNL1        0.1366
     12 N          65.6863   91.8524   15.4116 N.ar    1  UNL1       -0.1258
     13 N          66.7128   92.7523   16.0333 N.ar    1  UNL1       -0.0406
     14 N          67.2645   93.6394   14.9569 N.ar    1  UNL1       -0.1095
     15 C          66.5790   93.2878   13.6698 C.ar    1  UNL1        0.1838
     16 N          66.7169   93.8306   12.2783 N.ar    1  UNL1       -0.3249
     17 H          65.4677   93.4432    9.0474 H       1  UNL1        0.1437
     18 H          66.6575   94.5366    9.5919 H       1  UNL1        0.1437
     19 H          67.3570   94.5554   12.0939 H       1  UNL1        0.1686
     20 C          61.3296   87.4530    9.5953 C.3     1  UNL1        0.1538
     21 C          62.0783   86.1601    9.7283 C.ar    1  UNL1        0.0018
     22 C          62.9078   85.6529    8.5859 C.ar    1  UNL1       -0.0024
     23 C          63.6566   84.3599    8.7189 C.ar    1  UNL1       -0.0006
     24 C          63.5759   83.5743    9.9941 C.ar    1  UNL1       -0.0043
     25 C          62.7465   84.0815   11.1364 C.ar    1  UNL1       -0.0227
     26 C          61.9978   85.3744   11.0034 C.ar    1  UNL1       -0.0066
     27 C          62.6659   83.2957   12.4116 C.3     1  UNL1        0.0251
     28 C          62.7110   84.0039   13.7330 C.3     1  UNL1        0.0215
     29 C          62.6304   83.2182   15.0083 C.3     1  UNL1        0.0689
     30 N          62.5047   81.7242   14.9619 N.3     1  UNL1       -0.2974
     31 C          62.4596   81.0160   13.6404 C.3     1  UNL1        0.0689
     32 C          62.5402   81.8018   12.3652 C.3     1  UNL1        0.0215
     33 H          61.6432   81.4858   15.4533 H       1  UNL1        0.1232
@<TRIPOS>BOND
     1     7     8    1
     2     8     9   ar
     3     9    10   ar
     4    10     6    1
     5     6     1    1
     6     1     2   ar
     7     2     3   ar
     8     3     4   ar
     9     4    20    1
    10    20    21    1
    11    21    22   ar
    12    22    23   ar
    13    23    24   ar
    14    24    25   ar
    15    25    27    1
    16    27    28    1
    17    28    29    1
    18    29    30    1
    19    30    31    1
    20    31    32    1
    21    25    26   ar
    22     4     5   ar
    23    10    11   ar
    24    11    12   ar
    25    12    13   ar
    26    13    14   ar
    27    14    15   ar
    28    15    16   ar
    29    16     8   ar
    30     5     1   ar
    31    15    11    1
    32    26    21   ar
    33    32    27    1
    34     7    17    1
    35     7    18    1
    36    30    33    1
    37    16    19    1
@<TRIPOS>MOLECULE
*****
 33 37 0 0 0
SMALL
GASTEIGER

@<TRIPOS>ATOM
      1 C          62.2041   90.3578   10.5375 C.ar    1  UNL1        0.0846
      2 C          60.7162   90.5309   10.6165 C.ar    1  UNL1        0.0370
      3 C          60.0756   89.2872   10.0754 C.ar    1  UNL1        0.0967
      4 N          61.1674   88.3455    9.6619 N.ar    1  UNL1       -0.2452
      5 N          62.4830   89.0072    9.9475 N.ar    1  UNL1       -0.1730
      6 C          63.2325   91.3595   10.9720 C.3     1  UNL1        0.0757
      7 N          63.5600   89.0444   15.6125 N.pl3   1  UNL1       -0.3441
      8 C          64.0556   90.0665   14.6327 C.ar    1  UNL1        0.1035
      9 C          63.3963   90.2019   13.2923 C.ar    1  UNL1        0.0297
     10 C          63.8919   91.2241   12.3126 C.ar    1  UNL1        0.0090
     11 C          65.0467   92.1106   12.6735 C.ar    1  UNL1        0.1366
     12 N          65.7492   93.2005   11.9194 N.ar    1  UNL1       -0.1258
     13 N          66.8427   93.7386   12.7939 N.ar    1  UNL1       -0.0406
     14 N          66.8160   92.9813   14.0885 N.ar    1  UNL1       -0.1095
     15 C          65.7060   91.9751   14.0140 C.ar    1  UNL1        0.1838
     16 N          65.2104   90.9530   14.9936 N.ar    1  UNL1       -0.3249
     17 H          62.8020   88.4624   15.3757 H       1  UNL1        0.1437
     18 H          63.9927   88.9555   16.4923 H       1  UNL1        0.1437
     19 H          65.6431   90.8641   15.8735 H       1  UNL1        0.1686
     20 C          60.9773   86.9816    9.0673 C.3     1  UNL1        0.1538
     21 C          61.8974   85.8610    9.4514 C.ar    1  UNL1        0.0018
     22 C          62.8608   85.3034    8.4459 C.ar    1  UNL1       -0.0024
     23 C          63.7809   84.1828    8.8300 C.ar    1  UNL1       -0.0006
     24 C          63.7376   83.6197   10.2197 C.ar    1  UNL1       -0.0043
     25 C          62.7742   84.1773   11.2251 C.ar    1  UNL1       -0.0227
     26 C          61.8541   85.2978   10.8410 C.ar    1  UNL1       -0.0066
     27 C          62.7309   83.6141   12.6148 C.3     1  UNL1        0.0251
     28 C          63.0509   84.4903   13.7894 C.3     1  UNL1        0.0215
     29 C          63.0076   83.9271   15.1790 C.3     1  UNL1        0.0689
     30 N          62.6444   82.4877   15.3939 N.3     1  UNL1       -0.2974
     31 C          62.3244   81.6115   14.2192 C.3     1  UNL1        0.0689
     32 C          62.3677   82.1747   12.8297 C.3     1  UNL1        0.0215
     33 H          61.8242   82.4784   16.0003 H       1  UNL1        0.1232
@<TRIPOS>BOND
     1     7     8    1
     2     8     9   ar
     3     9    10   ar
     4    10     6    1
     5     6     1    1
     6     1     2   ar
     7     2     3   ar
     8     3     4   ar
     9     4    20    1
    10    20    21    1
    11    21    22   ar
    12    22    23   ar
    13    23    24   ar
    14    24    25   ar
    15    25    27    1
    16    27    28    1
    17    28    29    1
    18    29    30    1
    19    30    31    1
    20    31    32    1
    21    25    26   ar
    22     4     5   ar
    23    10    11   ar
    24    11    12   ar
    25    12    13   ar
    26    13    14   ar
    27    14    15   ar
    28    15    16   ar
    29    16     8   ar
    30     5     1   ar
    31    15    11    1
    32    26    21   ar
    33    32    27    1
    34     7    17    1
    35     7    18    1
    36    30    33    1
    37    16    19    1
@<TRIPOS>MOLECULE
*****
 33 37 0 0 0
SMALL
GASTEIGER

@<TRIPOS>ATOM
      1 C          62.1803   86.2594   11.1497 C.ar    1  UNL1        0.0846
      2 C          60.8734   86.5578   10.4766 C.ar    1  UNL1        0.0370
      3 C          60.5943   88.0230   10.6350 C.ar    1  UNL1        0.0967
      4 N          61.7286   88.6303   11.4060 N.ar    1  UNL1       -0.2452
      5 N          62.7088   87.5403   11.7241 N.ar    1  UNL1       -0.1730
      6 C          62.8423   84.9161   11.2337 C.3     1  UNL1        0.0757
      7 N          64.3028   85.4658   16.1900 N.pl3   1  UNL1       -0.3441
      8 C          63.8775   84.5875   15.0508 C.ar    1  UNL1        0.1035
      9 C          63.5726   85.1909   13.7119 C.ar    1  UNL1        0.0297
     10 C          63.1472   84.3126   12.5727 C.ar    1  UNL1        0.0090
     11 C          63.0268   82.8309   12.7725 C.ar    1  UNL1        0.1366
     12 N          62.6329   81.7215   11.8430 N.ar    1  UNL1       -0.1258
     13 N          62.6944   80.4324   12.6075 N.ar    1  UNL1       -0.0406
     14 N          63.1263   80.7451   14.0096 N.ar    1  UNL1       -0.1095
     15 C          63.3317   82.2275   14.1115 C.ar    1  UNL1        0.1838
     16 N          63.7570   83.1058   15.2507 N.ar    1  UNL1       -0.3249
     17 H          64.3819   86.4383   16.0589 H       1  UNL1        0.1437
     18 H          64.5029   85.0697   17.0688 H       1  UNL1        0.1437
     19 H          63.9572   82.7097   16.1295 H       1  UNL1        0.1686
     20 C          61.8599   90.0741   11.7913 C.3     1  UNL1        0.1538
     21 C          63.1597   90.5906   12.3329 C.ar    1  UNL1        0.0018
     22 C          63.5978   90.2145   13.7174 C.ar    1  UNL1       -0.0024
     23 C          64.8977   90.7311   14.2590 C.ar    1  UNL1       -0.0006
     24 C          65.7596   91.6238   13.4162 C.ar    1  UNL1       -0.0043
     25 C          65.3215   91.9998   12.0318 C.ar    1  UNL1       -0.0227
     26 C          64.0217   91.4833   11.4902 C.ar    1  UNL1       -0.0066
     27 C          66.1835   92.8925   11.1889 C.3     1  UNL1        0.0251
     28 C          65.9759   94.3778   11.2149 C.3     1  UNL1        0.0215
     29 C          66.8379   95.2704   10.3721 C.3     1  UNL1        0.0689
     30 N          67.9074   94.6777    9.5033 N.3     1  UNL1       -0.2974
     31 C          68.1149   93.1923    9.4774 C.3     1  UNL1        0.0689
     32 C          67.2530   92.2997   10.3202 C.3     1  UNL1        0.0215
     33 H          68.7907   95.0933    9.7988 H       1  UNL1        0.1232
@<TRIPOS>BOND
     1     7     8    1
     2     8     9   ar
     3     9    10   ar
     4    10     6    1
     5     6     1    1
     6     1     2   ar
     7     2     3   ar
     8     3     4   ar
     9     4    20    1
    10    20    21    1
    11    21    22   ar
    12    22    23   ar
    13    23    24   ar
    14    24    25   ar
    15    25    27    1
    16    27    28    1
    17    28    29    1
    18    29    30    1
    19    30    31    1
    20    31    32    1
    21    25    26   ar
    22     4     5   ar
    23    10    11   ar
    24    11    12   ar
    25    12    13   ar
    26    13    14   ar
    27    14    15   ar
    28    15    16   ar
    29    16     8   ar
    30     5     1   ar
    31    15    11    1
    32    26    21   ar
    33    32    27    1
    34     7    17    1
    35     7    18    1
    36    30    33    1
    37    16    19    1
@<TRIPOS>MOLECULE
*****
 33 37 0 0 0
SMALL
GASTEIGER

@<TRIPOS>ATOM
      1 C          62.2408   86.1578   11.1622 C.ar    1  UNL1        0.0846
      2 C          60.9824   86.3729   10.3748 C.ar    1  UNL1        0.0370
      3 C          60.6763   87.8413   10.3823 C.ar    1  UNL1        0.0967
      4 N          61.7454   88.5337   11.1744 N.ar    1  UNL1       -0.2452
      5 N          62.7124   87.4932   11.6564 N.ar    1  UNL1       -0.1730
      6 C          62.9102   84.8388   11.4117 C.3     1  UNL1        0.0757
      7 N          61.9505   80.7744   14.5038 N.pl3   1  UNL1       -0.3441
      8 C          62.3967   82.1957   14.3273 C.ar    1  UNL1        0.1035
      9 C          62.4304   82.8066   12.9578 C.ar    1  UNL1        0.0297
     10 C          62.8766   84.2279   12.7813 C.ar    1  UNL1        0.0090
     11 C          63.2891   85.0380   13.9744 C.ar    1  UNL1        0.1366
     12 N          63.7710   86.4521   14.1094 N.ar    1  UNL1       -0.1258
     13 N          64.0352   86.7150   15.5623 N.ar    1  UNL1       -0.0406
     14 N          63.7165   85.4635   16.3253 N.ar    1  UNL1       -0.1095
     15 C          63.2554   84.4270   15.3439 C.ar    1  UNL1        0.1838
     16 N          62.8092   83.0058   15.5203 N.ar    1  UNL1       -0.3249
     17 H          61.6798   80.2426   13.7208 H       1  UNL1        0.1437
     18 H          61.9285   80.3734   15.4026 H       1  UNL1        0.1437
     19 H          62.7872   82.6048   16.4192 H       1  UNL1        0.1686
     20 C          61.8324   90.0078   11.4382 C.3     1  UNL1        0.1538
     21 C          63.0666   90.5861   12.0645 C.ar    1  UNL1        0.0018
     22 C          63.3943   90.2814   13.4963 C.ar    1  UNL1       -0.0024
     23 C          64.6285   90.8597   14.1226 C.ar    1  UNL1       -0.0006
     24 C          65.5350   91.7427   13.3172 C.ar    1  UNL1       -0.0043
     25 C          65.2073   92.0473   11.8855 C.ar    1  UNL1       -0.0227
     26 C          63.9731   91.4691   11.2592 C.ar    1  UNL1       -0.0066
     27 C          66.1138   92.9303   11.0801 C.3     1  UNL1        0.0251
     28 C          67.2149   92.3262   10.2602 C.3     1  UNL1        0.0215
     29 C          68.1215   93.2092    9.4548 C.3     1  UNL1        0.0689
     30 N          67.9268   94.6964    9.4695 N.3     1  UNL1       -0.2974
     31 C          66.8256   95.3006   10.2895 C.3     1  UNL1        0.0689
     32 C          65.9191   94.4176   11.0948 C.3     1  UNL1        0.0215
     33 H          67.7653   94.9817    8.5036 H       1  UNL1        0.1232
@<TRIPOS>BOND
     1     7     8    1
     2     8     9   ar
     3     9    10   ar
     4    10     6    1
     5     6     1    1
     6     1     2   ar
     7     2     3   ar
     8     3     4   ar
     9     4    20    1
    10    20    21    1
    11    21    22   ar
    12    22    23   ar
    13    23    24   ar
    14    24    25   ar
    15    25    27    1
    16    27    28    1
    17    28    29    1
    18    29    30    1
    19    30    31    1
    20    31    32    1
    21    25    26   ar
    22     4     5   ar
    23    10    11   ar
    24    11    12   ar
    25    12    13   ar
    26    13    14   ar
    27    14    15   ar
    28    15    16   ar
    29    16     8   ar
    30     5     1   ar
    31    15    11    1
    32    26    21   ar
    33    32    27    1
    34     7    17    1
    35     7    18    1
    36    30    33    1
    37    16    19    1
@<TRIPOS>MOLECULE
*****
 33 37 0 0 0
SMALL
GASTEIGER

@<TRIPOS>ATOM
      1 C          62.5049   90.6329   10.6928 C.ar    1  UNL1        0.0846
      2 C          61.0707   90.8381   11.0815 C.ar    1  UNL1        0.0370
      3 C          60.2958   89.6288   10.6492 C.ar    1  UNL1        0.0967
      4 N          61.2509   88.6762    9.9933 N.ar    1  UNL1       -0.2452
      5 N          62.6162   89.2968   10.0202 N.ar    1  UNL1       -0.1730
      6 C          63.6301   91.5950   10.9342 C.3     1  UNL1        0.0757
      7 N          67.9921   92.5988   13.5736 N.pl3   1  UNL1       -0.3441
      8 C          66.6131   92.0108   13.5185 C.ar    1  UNL1        0.1035
      9 C          65.8111   92.0968   12.2539 C.ar    1  UNL1        0.0297
     10 C          64.4322   91.5089   12.1988 C.ar    1  UNL1        0.0090
     11 C          63.8554   90.8349   13.4084 C.ar    1  UNL1        0.1366
     12 N          62.5337   90.1685   13.6515 N.ar    1  UNL1       -0.1258
     13 N          62.5190   89.6707   15.0664 N.ar    1  UNL1       -0.0406
     14 N          63.8316   90.0293   15.6977 N.ar    1  UNL1       -0.1095
     15 C          64.6576   90.7488   14.6730 C.ar    1  UNL1        0.1838
     16 N          66.0364   91.3368   14.7280 N.ar    1  UNL1       -0.3249
     17 H          68.3707   93.0412   12.7797 H       1  UNL1        0.1437
     18 H          68.5185   92.5423   14.4036 H       1  UNL1        0.1437
     19 H          66.5629   91.2803   15.5580 H       1  UNL1        0.1686
     20 C          60.9021   87.3379    9.4123 C.3     1  UNL1        0.1538
     21 C          61.7953   86.1581    9.6572 C.ar    1  UNL1        0.0018
     22 C          62.6773   85.6441    8.5581 C.ar    1  UNL1       -0.0024
     23 C          63.5705   84.4643    8.8030 C.ar    1  UNL1       -0.0006
     24 C          63.5819   83.7984   10.1470 C.ar    1  UNL1       -0.0043
     25 C          62.7000   84.3123   11.2461 C.ar    1  UNL1       -0.0227
     26 C          61.8067   85.4921   11.0012 C.ar    1  UNL1       -0.0066
     27 C          62.7113   83.6464   12.5902 C.3     1  UNL1        0.0251
     28 C          63.0559   84.4381   13.8166 C.3     1  UNL1        0.0215
     29 C          63.0673   83.7721   15.1607 C.3     1  UNL1        0.0689
     30 N          62.7341   82.3144   15.2782 N.3     1  UNL1       -0.2974
     31 C          62.3895   81.5226   14.0516 C.3     1  UNL1        0.0689
     32 C          62.3781   82.1886   12.7077 C.3     1  UNL1        0.0215
     33 H          61.9346   82.2449   15.9077 H       1  UNL1        0.1232
@<TRIPOS>BOND
     1     7     8    1
     2     8     9   ar
     3     9    10   ar
     4    10     6    1
     5     6     1    1
     6     1     2   ar
     7     2     3   ar
     8     3     4   ar
     9     4    20    1
    10    20    21    1
    11    21    22   ar
    12    22    23   ar
    13    23    24   ar
    14    24    25   ar
    15    25    27    1
    16    27    28    1
    17    28    29    1
    18    29    30    1
    19    30    31    1
    20    31    32    1
    21    25    26   ar
    22     4     5   ar
    23    10    11   ar
    24    11    12   ar
    25    12    13   ar
    26    13    14   ar
    27    14    15   ar
    28    15    16   ar
    29    16     8   ar
    30     5     1   ar
    31    15    11    1
    32    26    21   ar
    33    32    27    1
    34     7    17    1
    35     7    18    1
    36    30    33    1
    37    16    19    1
@<TRIPOS>MOLECULE
*****
 33 37 0 0 0
SMALL
GASTEIGER

@<TRIPOS>ATOM
      1 C          62.1728   86.0117   11.0179 C.ar    1  UNL1        0.0846
      2 C          61.1128   86.4321   10.0433 C.ar    1  UNL1        0.0370
      3 C          60.8119   87.8819   10.2827 C.ar    1  UNL1        0.0967
      4 N          61.6857   88.3576   11.4052 N.ar    1  UNL1       -0.2452
      5 N          62.5268   87.2017   11.8596 N.ar    1  UNL1       -0.1730
      6 C          62.7732   84.6418   11.1309 C.3     1  UNL1        0.0757
      7 N          64.4656   85.3694   15.9897 N.pl3   1  UNL1       -0.3441
      8 C          63.9768   84.4523   14.9079 C.ar    1  UNL1        0.1035
      9 C          63.6194   85.0055   13.5603 C.ar    1  UNL1        0.0297
     10 C          63.1306   84.0884   12.4786 C.ar    1  UNL1        0.0090
     11 C          62.9994   82.6181   12.7445 C.ar    1  UNL1        0.1366
     12 N          62.5485   81.4781   11.8801 N.ar    1  UNL1       -0.1258
     13 N          62.6272   80.2203   12.6936 N.ar    1  UNL1       -0.0406
     14 N          63.1268   80.5829   14.0607 N.ar    1  UNL1       -0.1095
     15 C          63.3568   82.0648   14.0922 C.ar    1  UNL1        0.1838
     16 N          63.8455   82.9819   15.1739 N.ar    1  UNL1       -0.3249
     17 H          64.5518   86.3345   15.8152 H       1  UNL1        0.1437
     18 H          64.7002   85.0062   16.8742 H       1  UNL1        0.1437
     19 H          64.0801   82.6188   16.0584 H       1  UNL1        0.1686
     20 C          61.7137   89.7455   11.9737 C.3     1  UNL1        0.1538
     21 C          62.9152   90.6182   11.7630 C.ar    1  UNL1        0.0018
     22 C          63.1687   91.2339   10.4188 C.ar    1  UNL1       -0.0024
     23 C          64.3703   92.1066   10.2081 C.ar    1  UNL1       -0.0006
     24 C          65.3185   92.3637   11.3416 C.ar    1  UNL1       -0.0043
     25 C          65.0650   91.7481   12.6857 C.ar    1  UNL1       -0.0227
     26 C          63.8635   90.8754   12.8964 C.ar    1  UNL1       -0.0066
     27 C          66.0133   92.0053   13.8193 C.3     1  UNL1        0.0251
     28 C          67.4931   92.0032   13.5743 C.3     1  UNL1        0.0215
     29 C          68.4414   92.2604   14.7078 C.3     1  UNL1        0.0689
     30 N          67.9096   92.5196   16.0862 N.3     1  UNL1       -0.2974
     31 C          66.4298   92.5217   16.3312 C.3     1  UNL1        0.0689
     32 C          65.4816   92.2645   15.1977 C.3     1  UNL1        0.0215
     33 H          68.2560   93.4368   16.3678 H       1  UNL1        0.1232
@<TRIPOS>BOND
     1     7     8    1
     2     8     9   ar
     3     9    10   ar
     4    10     6    1
     5     6     1    1
     6     1     2   ar
     7     2     3   ar
     8     3     4   ar
     9     4    20    1
    10    20    21    1
    11    21    22   ar
    12    22    23   ar
    13    23    24   ar
    14    24    25   ar
    15    25    27    1
    16    27    28    1
    17    28    29    1
    18    29    30    1
    19    30    31    1
    20    31    32    1
    21    25    26   ar
    22     4     5   ar
    23    10    11   ar
    24    11    12   ar
    25    12    13   ar
    26    13    14   ar
    27    14    15   ar
    28    15    16   ar
    29    16     8   ar
    30     5     1   ar
    31    15    11    1
    32    26    21   ar
    33    32    27    1
    34     7    17    1
    35     7    18    1
    36    30    33    1
    37    16    19    1
@<TRIPOS>MOLECULE
*****
 33 37 0 0 0
SMALL
GASTEIGER

@<TRIPOS>ATOM
      1 C          61.2437   88.9074    9.7308 C.ar    1  UNL1        0.0846
      2 C          60.0792   88.2452    9.0559 C.ar    1  UNL1        0.0370
      3 C          60.5080   86.8712    8.6340 C.ar    1  UNL1        0.0967
      4 N          61.9375   86.6840    9.0481 N.ar    1  UNL1       -0.2452
      5 N          62.3922   87.9425    9.7260 N.ar    1  UNL1       -0.1730
      6 C          61.2573   90.2914   10.3090 C.3     1  UNL1        0.0757
      7 N          65.6923   92.9890   10.0742 N.pl3   1  UNL1       -0.3441
      8 C          64.7138   92.1633   10.8558 C.ar    1  UNL1        0.1035
      9 C          63.4748   91.6402   10.1916 C.ar    1  UNL1        0.0297
     10 C          62.4963   90.8145   10.9733 C.ar    1  UNL1        0.0090
     11 C          62.7569   90.5120   12.4192 C.ar    1  UNL1        0.1366
     12 N          61.9799   89.7309   13.4370 N.ar    1  UNL1       -0.1258
     13 N          62.7386   89.7713   14.7303 N.ar    1  UNL1       -0.0406
     14 N          63.9846   90.5774   14.5118 N.ar    1  UNL1       -0.1095
     15 C          63.9959   91.0352   13.0834 C.ar    1  UNL1        0.1838
     16 N          64.9744   91.8608   12.3017 N.ar    1  UNL1       -0.3249
     17 H          65.5213   93.1875    9.1252 H       1  UNL1        0.1437
     18 H          66.5055   93.3323   10.5102 H       1  UNL1        0.1437
     19 H          65.7876   92.2042   12.7377 H       1  UNL1        0.1686
     20 C          62.7668   85.4544    8.8238 C.3     1  UNL1        0.1538
     21 C          63.2197   84.6315    9.9933 C.ar    1  UNL1        0.0018
     22 C          63.8233   83.2768    9.7684 C.ar    1  UNL1       -0.0024
     23 C          64.2762   82.4540   10.9379 C.ar    1  UNL1       -0.0006
     24 C          64.1254   82.9857   12.3323 C.ar    1  UNL1       -0.0043
     25 C          63.5218   84.3404   12.5572 C.ar    1  UNL1       -0.0227
     26 C          63.0689   85.1632   11.3878 C.ar    1  UNL1       -0.0066
     27 C          63.3710   84.8721   13.9518 C.3     1  UNL1        0.0251
     28 C          64.1701   86.0630   14.3908 C.3     1  UNL1        0.0215
     29 C          64.0194   86.5947   15.7854 C.3     1  UNL1        0.0689
     30 N          63.0694   85.9354   16.7407 N.3     1  UNL1       -0.2974
     31 C          62.2702   84.7444   16.3016 C.3     1  UNL1        0.0689
     32 C          62.4210   84.2127   14.9071 C.3     1  UNL1        0.0215
     33 H          62.4001   86.6488   17.0298 H       1  UNL1        0.1232
@<TRIPOS>BOND
     1     7     8    1
     2     8     9   ar
     3     9    10   ar
     4    10     6    1
     5     6     1    1
     6     1     2   ar
     7     2     3   ar
     8     3     4   ar
     9     4    20    1
    10    20    21    1
    11    21    22   ar
    12    22    23   ar
    13    23    24   ar
    14    24    25   ar
    15    25    27    1
    16    27    28    1
    17    28    29    1
    18    29    30    1
    19    30    31    1
    20    31    32    1
    21    25    26   ar
    22     4     5   ar
    23    10    11   ar
    24    11    12   ar
    25    12    13   ar
    26    13    14   ar
    27    14    15   ar
    28    15    16   ar
    29    16     8   ar
    30     5     1   ar
    31    15    11    1
    32    26    21   ar
    33    32    27    1
    34     7    17    1
    35     7    18    1
    36    30    33    1
    37    16    19    1
@<TRIPOS>MOLECULE
*****
 33 37 0 0 0
SMALL
GASTEIGER

@<TRIPOS>ATOM
      1 C          61.9917   89.8395    9.9500 C.ar    1  UNL1        0.0846
      2 C          60.5551   89.7501    9.5281 C.ar    1  UNL1        0.0370
      3 C          60.2853   88.3385    9.0985 C.ar    1  UNL1        0.0967
      4 N          61.5551   87.5555    9.2549 N.ar    1  UNL1       -0.2452
      5 N          62.6098   88.4833    9.7812 N.ar    1  UNL1       -0.1730
      6 C          62.6881   91.0693   10.4525 C.3     1  UNL1        0.0757
      7 N          62.8503   89.5391   15.4157 N.pl3   1  UNL1       -0.3441
      8 C          63.4604   90.2837   14.2652 C.ar    1  UNL1        0.1035
      9 C          62.7693   90.3043   12.9342 C.ar    1  UNL1        0.0297
     10 C          63.3794   91.0488   11.7837 C.ar    1  UNL1        0.0090
     11 C          64.6806   91.7727   11.9644 C.ar    1  UNL1        0.1366
     12 N          65.5165   92.5854   11.0206 N.ar    1  UNL1       -0.1258
     13 N          66.7243   93.0670   11.7684 N.ar    1  UNL1       -0.0406
     14 N          66.6348   92.5521   13.1744 N.ar    1  UNL1       -0.1095
     15 C          65.3717   91.7521   13.2955 C.ar    1  UNL1        0.1838
     16 N          64.7616   91.0076   14.4459 N.ar    1  UNL1       -0.3249
     17 H          61.9962   89.0640   15.2971 H       1  UNL1        0.1437
     18 H          63.3040   89.5256   16.2893 H       1  UNL1        0.1437
     19 H          65.2153   90.9941   15.3196 H       1  UNL1        0.1686
     20 C          61.7382   86.1003    8.9403 C.3     1  UNL1        0.1538
     21 C          62.5330   85.2272    9.8653 C.ar    1  UNL1        0.0018
     22 C          63.3430   84.0915    9.3136 C.ar    1  UNL1       -0.0024
     23 C          64.1379   83.2184   10.2387 C.ar    1  UNL1       -0.0006
     24 C          64.1229   83.4809   11.7155 C.ar    1  UNL1       -0.0043
     25 C          63.3131   84.6166   12.2671 C.ar    1  UNL1       -0.0227
     26 C          62.5182   85.4897   11.3421 C.ar    1  UNL1       -0.0066
     27 C          63.2982   84.8791   13.7440 C.3     1  UNL1        0.0251
     28 C          64.2027   85.9227   14.3294 C.3     1  UNL1        0.0215
     29 C          64.1878   86.1852   15.8062 C.3     1  UNL1        0.0689
     30 N          63.2683   85.4041   16.6975 N.3     1  UNL1       -0.2974
     31 C          62.3637   84.3605   16.1120 C.3     1  UNL1        0.0689
     32 C          62.3787   84.0981   14.6352 C.3     1  UNL1        0.0215
     33 H          62.6694   86.0818   17.1692 H       1  UNL1        0.1232
@<TRIPOS>BOND
     1     7     8    1
     2     8     9   ar
     3     9    10   ar
     4    10     6    1
     5     6     1    1
     6     1     2   ar
     7     2     3   ar
     8     3     4   ar
     9     4    20    1
    10    20    21    1
    11    21    22   ar
    12    22    23   ar
    13    23    24   ar
    14    24    25   ar
    15    25    27    1
    16    27    28    1
    17    28    29    1
    18    29    30    1
    19    30    31    1
    20    31    32    1
    21    25    26   ar
    22     4     5   ar
    23    10    11   ar
    24    11    12   ar
    25    12    13   ar
    26    13    14   ar
    27    14    15   ar
    28    15    16   ar
    29    16     8   ar
    30     5     1   ar
    31    15    11    1
    32    26    21   ar
    33    32    27    1
    34     7    17    1
    35     7    18    1
    36    30    33    1
    37    16    19    1
@<TRIPOS>MOLECULE
*****
 33 37 0 0 0
SMALL
GASTEIGER

@<TRIPOS>ATOM
      1 C          62.2682   86.0063   11.1112 C.ar    1  UNL1        0.0846
      2 C          61.0556   86.2807   10.2720 C.ar    1  UNL1        0.0370
      3 C          60.6727   87.7179   10.4666 C.ar    1  UNL1        0.0967
      4 N          61.6487   88.3318   11.4261 N.ar    1  UNL1       -0.2452
      5 N          62.6348   87.2739   11.8245 N.ar    1  UNL1       -0.1730
      6 C          62.9879   84.6947   11.2184 C.3     1  UNL1        0.0757
      7 N          61.9312   80.0884   13.3786 N.pl3   1  UNL1       -0.3441
      8 C          62.2867   81.5388   13.5203 C.ar    1  UNL1        0.1035
      9 C          62.4596   82.3915   12.2985 C.ar    1  UNL1        0.0297
     10 C          62.8150   83.8420   12.4403 C.ar    1  UNL1        0.0090
     11 C          62.9975   84.4395   13.8040 C.ar    1  UNL1        0.1366
     12 N          63.3463   85.8276   14.2530 N.ar    1  UNL1       -0.1258
     13 N          63.3890   85.8326   15.7524 N.ar    1  UNL1       -0.0406
     14 N          63.0666   84.4478   16.2300 N.ar    1  UNL1       -0.1095
     15 C          62.8246   83.5867   15.0258 C.ar    1  UNL1        0.1838
     16 N          62.4692   82.1364   14.8840 N.ar    1  UNL1       -0.3249
     17 H          61.8114   79.6961   12.4836 H       1  UNL1        0.1437
     18 H          61.8178   79.5287   14.1805 H       1  UNL1        0.1437
     19 H          62.3557   81.5767   15.6859 H       1  UNL1        0.1686
     20 C          61.6402   89.7538   11.9034 C.3     1  UNL1        0.1538
     21 C          62.8486   90.6194   11.7031 C.ar    1  UNL1        0.0018
     22 C          63.1243   91.2231   10.3578 C.ar    1  UNL1       -0.0024
     23 C          64.3328   92.0887   10.1576 C.ar    1  UNL1       -0.0006
     24 C          65.2657   92.3507   11.3025 C.ar    1  UNL1       -0.0043
     25 C          64.9901   91.7471   12.6478 C.ar    1  UNL1       -0.0227
     26 C          63.7817   90.8815   12.8480 C.ar    1  UNL1       -0.0066
     27 C          65.9231   92.0092   13.7927 C.3     1  UNL1        0.0251
     28 C          67.4050   92.0347   13.5620 C.3     1  UNL1        0.0215
     29 C          68.3380   92.2968   14.7070 C.3     1  UNL1        0.0689
     30 N          67.7889   92.5333   16.0827 N.3     1  UNL1       -0.2974
     31 C          66.3070   92.5078   16.3134 C.3     1  UNL1        0.0689
     32 C          65.3741   92.2457   15.1685 C.3     1  UNL1        0.0215
     33 H          68.1169   93.4534   16.3764 H       1  UNL1        0.1232
@<TRIPOS>BOND
     1     7     8    1
     2     8     9   ar
     3     9    10   ar
     4    10     6    1
     5     6     1    1
     6     1     2   ar
     7     2     3   ar
     8     3     4   ar
     9     4    20    1
    10    20    21    1
    11    21    22   ar
    12    22    23   ar
    13    23    24   ar
    14    24    25   ar
    15    25    27    1
    16    27    28    1
    17    28    29    1
    18    29    30    1
    19    30    31    1
    20    31    32    1
    21    25    26   ar
    22     4     5   ar
    23    10    11   ar
    24    11    12   ar
    25    12    13   ar
    26    13    14   ar
    27    14    15   ar
    28    15    16   ar
    29    16     8   ar
    30     5     1   ar
    31    15    11    1
    32    26    21   ar
    33    32    27    1
    34     7    17    1
    35     7    18    1
    36    30    33    1
    37    16    19    1
