@<TRIPOS>MOLECULE
*****
 32 34 0 0 0
SMALL
GASTEIGER

@<TRIPOS>ATOM
      1 C          64.0259   87.5742   15.5132 C.ar    1  UNL1        0.0764
      2 C          64.6325   88.6734   14.6921 C.ar    1  UNL1        0.0522
      3 C          64.1678   90.0881   14.8726 C.ar    1  UNL1        0.1515
      4 N          63.0967   90.4038   15.8742 N.ar    1  UNL1       -0.1329
      5 N          62.4902   89.3046   16.6952 N.ar    1  UNL1       -0.1409
      6 C          62.9548   87.8899   16.5147 C.ar    1  UNL1        0.1691
      7 C          62.3483   86.7907   17.3358 C.2     1  UNL1        0.2635
      8 N          62.7234   86.6392   18.7801 N.am    1  UNL1       -0.3240
      9 O          61.3667   85.8432   16.7124 O.2     1  UNL1       -0.2686
     10 H          63.3677   87.2611   19.1893 H       1  UNL1        0.1453
     11 H          62.3253   85.9178   19.3190 H       1  UNL1        0.1453
     12 N          64.4905   86.1595   15.3326 N.pl3   1  UNL1       -0.2965
     13 H          65.0472   85.7323   16.0232 H       1  UNL1        0.1537
     14 C          61.6818   85.7579   10.9795 C.3     1  UNL1        0.0546
     15 C          62.7026   85.1948   11.9234 C.ar    1  UNL1        0.0881
     16 N          63.0862   85.9587   13.1560 N.ar    1  UNL1       -0.2326
     17 C          64.1069   85.3956   14.1000 C.ar    1  UNL1        0.1319
     18 C          64.7441   84.0687   13.8113 C.ar    1  UNL1        0.0367
     19 C          64.3604   83.3049   12.5787 C.ar    1  UNL1        0.0337
     20 C          63.3397   83.8680   11.6348 C.ar    1  UNL1        0.1537
     21 F          62.9561   83.1041   10.4021 F       1  UNL1       -0.2029
     22 N          64.7743   91.1872   14.0516 N.pl3   1  UNL1       -0.3170
     23 H          64.3090   91.5160   13.2487 H       1  UNL1        0.1482
     24 C          66.0897   91.7854   14.4538 C.3     1  UNL1        0.0845
     25 C          67.2924   91.6130   13.5741 C.3     1  UNL1        0.0209
     26 C          68.6079   92.2112   13.9764 C.3     1  UNL1        0.0018
     27 C          68.7206   92.9816   15.2584 C.3     1  UNL1        0.0015
     28 C          67.5180   93.1540   16.1382 C.3     1  UNL1        0.0172
     29 C          66.2026   92.5559   15.7359 C.3     1  UNL1        0.0689
     30 N          64.9999   92.7282   16.6157 N.3     1  UNL1       -0.3209
     31 H          64.1987   92.2607   16.1916 H       1  UNL1        0.1189
     32 H          64.7964   93.7220   16.7224 H       1  UNL1        0.1189
@<TRIPOS>BOND
     1    14    15    1
     2    15    16   ar
     3    16    17   ar
     4    17    12    1
     5    12     1    1
     6     1     2   ar
     7     2     3   ar
     8     3    22    1
     9    24    22    1
    10    24    25    1
    11    25    26    1
    12    26    27    1
    13    27    28    1
    14    28    29    1
    15    29    30    1
    16     3     4   ar
    17     4     5   ar
    18     5     6   ar
    19     6     7    1
    20     7     8   am
    21     7     9    2
    22    17    18   ar
    23    18    19   ar
    24    19    20   ar
    25    20    21    1
    26    20    15   ar
    27     6     1   ar
    28    29    24    1
    29    12    13    1
    30    22    23    1
    31    30    31    1
    32    30    32    1
    33     8    10    1
    34     8    11    1
@<TRIPOS>MOLECULE
*****
 32 34 0 0 0
SMALL
GASTEIGER

@<TRIPOS>ATOM
      1 C          63.6542   90.9329   13.3289 C.ar    1  UNL1        0.0764
      2 C          62.5821   90.5084   12.3694 C.ar    1  UNL1        0.0522
      3 C          62.6794   90.8862   10.9210 C.ar    1  UNL1        0.1515
      4 N          63.8488   91.6885   10.4321 N.ar    1  UNL1       -0.1329
      5 N          64.9208   92.1130   11.3916 N.ar    1  UNL1       -0.1409
      6 C          64.8235   91.7352   12.8400 C.ar    1  UNL1        0.1691
      7 C          65.8955   92.1597   13.7995 C.2     1  UNL1        0.2635
      8 N          67.3401   91.9999   13.4286 N.am    1  UNL1       -0.3240
      9 O          65.5229   92.7439   15.1298 O.2     1  UNL1       -0.2686
     10 H          67.5847   91.6165   12.5554 H       1  UNL1        0.1453
     11 H          68.0437   92.2786   14.0583 H       1  UNL1        0.1453
     12 N          63.5569   90.5551   14.7773 N.pl3   1  UNL1       -0.2965
     13 H          63.4266   91.2522   15.4601 H       1  UNL1        0.1537
     14 C          62.5869   86.7693   18.2018 C.3     1  UNL1        0.0546
     15 C          63.1731   87.2223   16.8975 C.ar    1  UNL1        0.0881
     16 N          63.0719   88.6622   16.4895 N.ar    1  UNL1       -0.2326
     17 C          63.6581   89.1152   15.1852 C.ar    1  UNL1        0.1319
     18 C          64.3454   88.1282   14.2888 C.ar    1  UNL1        0.0367
     19 C          64.4466   86.6884   14.6968 C.ar    1  UNL1        0.0337
     20 C          63.8605   86.2354   16.0011 C.ar    1  UNL1        0.1537
     21 F          63.9617   84.7954   16.4090 F       1  UNL1       -0.2029
     22 N          61.6074   90.4617    9.9615 N.pl3   1  UNL1       -0.3170
     23 H          61.0620   91.1399    9.5014 H       1  UNL1        0.1482
     24 C          61.3666   89.0040    9.7032 C.3     1  UNL1        0.0845
     25 C          62.0816   87.9692   10.5205 C.3     1  UNL1        0.0209
     26 C          61.8407   86.5114   10.2620 C.3     1  UNL1        0.0018
     27 C          60.8847   86.0883    9.1864 C.3     1  UNL1        0.0015
     28 C          60.1697   87.1231    8.3691 C.3     1  UNL1        0.0172
     29 C          60.4105   88.5808    8.6275 C.3     1  UNL1        0.0689
     30 N          59.6955   89.6156    7.8102 N.3     1  UNL1       -0.3209
     31 H          59.9764   90.5463    8.1187 H       1  UNL1        0.1189
     32 H          58.6883   89.5072    7.9301 H       1  UNL1        0.1189
@<TRIPOS>BOND
     1    14    15    1
     2    15    16   ar
     3    16    17   ar
     4    17    12    1
     5    12     1    1
     6     1     2   ar
     7     2     3   ar
     8     3    22    1
     9    24    22    1
    10    24    25    1
    11    25    26    1
    12    26    27    1
    13    27    28    1
    14    28    29    1
    15    29    30    1
    16     3     4   ar
    17     4     5   ar
    18     5     6   ar
    19     6     7    1
    20     7     8   am
    21     7     9    2
    22    17    18   ar
    23    18    19   ar
    24    19    20   ar
    25    20    21    1
    26    20    15   ar
    27     6     1   ar
    28    29    24    1
    29    12    13    1
    30    22    23    1
    31    30    31    1
    32    30    32    1
    33     8    10    1
    34     8    11    1
@<TRIPOS>MOLECULE
*****
 32 34 0 0 0
SMALL
GASTEIGER

@<TRIPOS>ATOM
      1 C          64.1628   91.2801   13.0539 C.ar    1  UNL1        0.0764
      2 C          65.0190   91.8906   11.9842 C.ar    1  UNL1        0.0522
      3 C          66.4526   92.2257   12.2712 C.ar    1  UNL1        0.1515
      4 N          67.0301   91.9503   13.6280 N.ar    1  UNL1       -0.1329
      5 N          66.1739   91.3398   14.6976 N.ar    1  UNL1       -0.1409
      6 C          64.7403   91.0048   14.4106 C.ar    1  UNL1        0.1691
      7 C          63.8841   90.3943   15.4804 C.2     1  UNL1        0.2635
      8 N          63.4576   88.9603   15.3724 N.am    1  UNL1       -0.3240
      9 O          63.4545   91.2179   16.6582 O.2     1  UNL1       -0.2686
     10 H          63.7395   88.4198   14.5993 H       1  UNL1        0.1453
     11 H          62.8956   88.5596   16.0745 H       1  UNL1        0.1453
     12 N          62.7292   90.9450   12.7669 N.pl3   1  UNL1       -0.2965
     13 H          62.0079   91.4445   13.2138 H       1  UNL1        0.1537
     14 C          62.5356   85.8886   11.5858 C.3     1  UNL1        0.0546
     15 C          62.2976   87.3208   11.2086 C.ar    1  UNL1        0.0881
     16 N          62.6324   88.4168   12.1763 N.ar    1  UNL1       -0.2326
     17 C          62.3944   89.8490   11.7991 C.ar    1  UNL1        0.1319
     18 C          61.8217   90.1851   10.4541 C.ar    1  UNL1        0.0367
     19 C          61.4869   89.0890    9.4864 C.ar    1  UNL1        0.0337
     20 C          61.7249   87.6569    9.8636 C.ar    1  UNL1        0.1537
     21 F          61.3901   86.5608    8.8958 F       1  UNL1       -0.2029
     22 N          67.3088   92.8361   11.2015 N.pl3   1  UNL1       -0.3170
     23 H          68.1089   92.3608   10.8804 H       1  UNL1        0.1482
     24 C          66.9459   94.1708   10.6211 C.3     1  UNL1        0.0845
     25 C          66.2226   95.1820   11.4603 C.3     1  UNL1        0.0209
     26 C          65.8597   96.5167   10.8798 C.3     1  UNL1        0.0018
     27 C          66.2201   96.8402    9.4602 C.3     1  UNL1        0.0015
     28 C          66.9434   95.8290    8.6209 C.3     1  UNL1        0.0172
     29 C          67.3063   94.4943    9.2013 C.3     1  UNL1        0.0689
     30 N          68.0295   93.4831    8.3621 N.3     1  UNL1       -0.3209
     31 H          68.1944   92.6401    8.9122 H       1  UNL1        0.1189
     32 H          68.9226   93.8704    8.0574 H       1  UNL1        0.1189
@<TRIPOS>BOND
     1    14    15    1
     2    15    16   ar
     3    16    17   ar
     4    17    12    1
     5    12     1    1
     6     1     2   ar
     7     2     3   ar
     8     3    22    1
     9    24    22    1
    10    24    25    1
    11    25    26    1
    12    26    27    1
    13    27    28    1
    14    28    29    1
    15    29    30    1
    16     3     4   ar
    17     4     5   ar
    18     5     6   ar
    19     6     7    1
    20     7     8   am
    21     7     9    2
    22    17    18   ar
    23    18    19   ar
    24    19    20   ar
    25    20    21    1
    26    20    15   ar
    27     6     1   ar
    28    29    24    1
    29    12    13    1
    30    22    23    1
    31    30    31    1
    32    30    32    1
    33     8    10    1
    34     8    11    1
@<TRIPOS>MOLECULE
*****
 32 34 0 0 0
SMALL
GASTEIGER

@<TRIPOS>ATOM
      1 C          63.4257   90.4456   13.1973 C.ar    1  UNL1        0.0764
      2 C          63.8464   91.6720   12.4428 C.ar    1  UNL1        0.0522
      3 C          65.1748   92.3082   12.7266 C.ar    1  UNL1        0.1515
      4 N          66.0825   91.7181   13.7648 N.ar    1  UNL1       -0.1329
      5 N          65.6618   90.4918   14.5192 N.ar    1  UNL1       -0.1409
      6 C          64.3334   89.8556   14.2355 C.ar    1  UNL1        0.1691
      7 C          63.9127   88.6293   14.9900 C.2     1  UNL1        0.2635
      8 N          64.2012   87.2681   14.4296 N.am    1  UNL1       -0.3240
      9 O          63.2035   88.7641   16.3049 O.2     1  UNL1       -0.2686
     10 H          64.6667   87.1796   13.5666 H       1  UNL1        0.1453
     11 H          63.9251   86.4633   14.9248 H       1  UNL1        0.1453
     12 N          62.0973   89.8094   12.9136 N.pl3   1  UNL1       -0.2965
     13 H          61.3300   89.9876   13.5041 H       1  UNL1        0.1537
     14 C          62.5552   85.1040   10.7573 C.3     1  UNL1        0.0546
     15 C          62.1669   86.5490   10.6519 C.ar    1  UNL1        0.0881
     16 N          62.3262   87.4567   11.8354 N.ar    1  UNL1       -0.2326
     17 C          61.9379   88.9017   11.7300 C.ar    1  UNL1        0.1319
     18 C          61.3903   89.4391   10.4411 C.ar    1  UNL1        0.0367
     19 C          61.2310   88.5314    9.2576 C.ar    1  UNL1        0.0337
     20 C          61.6193   87.0864    9.3630 C.ar    1  UNL1        0.1537
     21 F          61.4599   86.1787    8.1794 F       1  UNL1       -0.2029
     22 N          65.5955   93.5345   11.9721 N.pl3   1  UNL1       -0.3170
     23 H          65.2482   94.4174   12.2349 H       1  UNL1        0.1482
     24 C          66.5454   93.4155   10.8173 C.3     1  UNL1        0.0845
     25 C          67.4807   92.2458   10.7330 C.3     1  UNL1        0.0209
     26 C          68.4305   92.1268    9.5781 C.3     1  UNL1        0.0018
     27 C          68.4451   93.1775    8.5077 C.3     1  UNL1        0.0015
     28 C          67.5098   94.3472    8.5920 C.3     1  UNL1        0.0172
     29 C          66.5600   94.4662    9.7468 C.3     1  UNL1        0.0689
     30 N          65.6247   95.6358    9.8312 N.3     1  UNL1       -0.3209
     31 H          65.0557   95.5561   10.6740 H       1  UNL1        0.1189
     32 H          65.0181   95.6460    9.0112 H       1  UNL1        0.1189
@<TRIPOS>BOND
     1    14    15    1
     2    15    16   ar
     3    16    17   ar
     4    17    12    1
     5    12     1    1
     6     1     2   ar
     7     2     3   ar
     8     3    22    1
     9    24    22    1
    10    24    25    1
    11    25    26    1
    12    26    27    1
    13    27    28    1
    14    28    29    1
    15    29    30    1
    16     3     4   ar
    17     4     5   ar
    18     5     6   ar
    19     6     7    1
    20     7     8   am
    21     7     9    2
    22    17    18   ar
    23    18    19   ar
    24    19    20   ar
    25    20    21    1
    26    20    15   ar
    27     6     1   ar
    28    29    24    1
    29    12    13    1
    30    22    23    1
    31    30    31    1
    32    30    32    1
    33     8    10    1
    34     8    11    1
@<TRIPOS>MOLECULE
*****
 32 34 0 0 0
SMALL
GASTEIGER

@<TRIPOS>ATOM
      1 C          63.5518   89.7913   12.2507 C.ar    1  UNL1        0.0764
      2 C          62.6346   88.6543   11.9098 C.ar    1  UNL1        0.0522
      3 C          61.7752   88.7261   10.6824 C.ar    1  UNL1        0.1515
      4 N          61.8330   89.9348    9.7960 N.ar    1  UNL1       -0.1329
      5 N          62.7501   91.0717   10.1370 N.ar    1  UNL1       -0.1409
      6 C          63.6095   90.9999   11.3643 C.ar    1  UNL1        0.1691
      7 C          64.5267   92.1369   11.7052 C.2     1  UNL1        0.2635
      8 N          65.1412   92.9588   10.6112 N.am    1  UNL1       -0.3240
      9 O          64.8293   92.4520   13.1402 O.2     1  UNL1       -0.2686
     10 H          64.9425   92.7520    9.6694 H       1  UNL1        0.1453
     11 H          65.7431   93.7050   10.8350 H       1  UNL1        0.1453
     12 N          64.4111   89.7195   13.4780 N.pl3   1  UNL1       -0.2965
     13 H          65.2415   90.2459   13.5290 H       1  UNL1        0.1537
     14 C          63.9775   85.0003   15.6090 C.3     1  UNL1        0.0546
     15 C          63.7885   86.4859   15.6931 C.ar    1  UNL1        0.0881
     16 N          64.1943   87.3599   14.5436 N.ar    1  UNL1       -0.2326
     17 C          64.0053   88.8455   14.6277 C.ar    1  UNL1        0.1319
     18 C          63.4106   89.4573   15.8613 C.ar    1  UNL1        0.0367
     19 C          63.0048   88.5833   17.0109 C.ar    1  UNL1        0.0337
     20 C          63.1938   87.0977   16.9268 C.ar    1  UNL1        0.1537
     21 F          62.7880   86.2237   18.0764 F       1  UNL1       -0.2029
     22 N          60.8581   87.5892   10.3415 N.pl3   1  UNL1       -0.3170
     23 H          60.0321   87.4509   10.8590 H       1  UNL1        0.1482
     24 C          61.1994   86.6631    9.2120 C.3     1  UNL1        0.0845
     25 C          62.5864   86.1043    9.0933 C.3     1  UNL1        0.0209
     26 C          62.9277   85.1781    7.9638 C.3     1  UNL1        0.0018
     27 C          61.8821   84.8108    6.9530 C.3     1  UNL1        0.0015
     28 C          60.4952   85.3696    7.0717 C.3     1  UNL1        0.0172
     29 C          60.1538   86.2957    8.2012 C.3     1  UNL1        0.0689
     30 N          58.7668   86.8545    8.3198 N.3     1  UNL1       -0.3209
     31 H          58.7131   87.4599    9.1390 H       1  UNL1        0.1189
     32 H          58.0993   86.0895    8.4181 H       1  UNL1        0.1189
@<TRIPOS>BOND
     1    14    15    1
     2    15    16   ar
     3    16    17   ar
     4    17    12    1
     5    12     1    1
     6     1     2   ar
     7     2     3   ar
     8     3    22    1
     9    24    22    1
    10    24    25    1
    11    25    26    1
    12    26    27    1
    13    27    28    1
    14    28    29    1
    15    29    30    1
    16     3     4   ar
    17     4     5   ar
    18     5     6   ar
    19     6     7    1
    20     7     8   am
    21     7     9    2
    22    17    18   ar
    23    18    19   ar
    24    19    20   ar
    25    20    21    1
    26    20    15   ar
    27     6     1   ar
    28    29    24    1
    29    12    13    1
    30    22    23    1
    31    30    31    1
    32    30    32    1
    33     8    10    1
    34     8    11    1
@<TRIPOS>MOLECULE
*****
 32 34 0 0 0
SMALL
GASTEIGER

@<TRIPOS>ATOM
      1 C          61.8325   86.8693    9.8458 C.ar    1  UNL1        0.0764
      2 C          62.2669   87.7325   10.9931 C.ar    1  UNL1        0.0522
      3 C          61.4820   88.9610   11.3465 C.ar    1  UNL1        0.1515
      4 N          60.2628   89.3262   10.5527 N.ar    1  UNL1       -0.1329
      5 N          59.8284   88.4629    9.4055 N.ar    1  UNL1       -0.1409
      6 C          60.6133   87.2345    9.0520 C.ar    1  UNL1        0.1691
      7 C          60.1789   86.3712    7.9048 C.2     1  UNL1        0.2635
      8 N          58.7396   86.3530    7.4829 N.am    1  UNL1       -0.3240
      9 O          61.1839   85.5262    7.1795 O.2     1  UNL1       -0.2686
     10 H          58.0800   86.9076    7.9589 H       1  UNL1        0.1453
     11 H          58.4545   85.7864    6.7299 H       1  UNL1        0.1453
     12 N          62.6174   85.6408    9.4924 N.pl3   1  UNL1       -0.2965
     13 H          62.8914   85.4831    8.5601 H       1  UNL1        0.1537
     14 C          62.3403   84.0354   14.4266 C.3     1  UNL1        0.0546
     15 C          62.8461   83.8500   13.0266 C.ar    1  UNL1        0.0881
     16 N          62.4789   84.8381   11.9595 N.ar    1  UNL1       -0.2326
     17 C          62.9846   84.6526   10.5596 C.ar    1  UNL1        0.1319
     18 C          63.8576   83.4792   10.2268 C.ar    1  UNL1        0.0367
     19 C          64.2248   82.4911   11.2939 C.ar    1  UNL1        0.0337
     20 C          63.7190   82.6765   12.6938 C.ar    1  UNL1        0.1537
     21 F          64.0863   81.6883   13.7610 F       1  UNL1       -0.2029
     22 N          61.9164   89.8242   12.4937 N.pl3   1  UNL1       -0.3170
     23 H          61.3999   89.8256   13.3319 H       1  UNL1        0.1482
     24 C          63.1376   90.6854   12.3639 C.3     1  UNL1        0.0845
     25 C          63.5501   91.2039   11.0182 C.3     1  UNL1        0.0209
     26 C          64.7714   92.0652   10.8884 C.3     1  UNL1        0.0018
     27 C          65.5802   92.4078   12.1043 C.3     1  UNL1        0.0015
     28 C          65.1677   91.8892   13.4500 C.3     1  UNL1        0.0172
     29 C          63.9465   91.0281   13.5798 C.3     1  UNL1        0.0689
     30 N          63.5340   90.5095   14.9256 N.3     1  UNL1       -0.3209
     31 H          62.6891   89.9464   14.8286 H       1  UNL1        0.1189
     32 H          63.3496   91.2943   15.5505 H       1  UNL1        0.1189
@<TRIPOS>BOND
     1    14    15    1
     2    15    16   ar
     3    16    17   ar
     4    17    12    1
     5    12     1    1
     6     1     2   ar
     7     2     3   ar
     8     3    22    1
     9    24    22    1
    10    24    25    1
    11    25    26    1
    12    26    27    1
    13    27    28    1
    14    28    29    1
    15    29    30    1
    16     3     4   ar
    17     4     5   ar
    18     5     6   ar
    19     6     7    1
    20     7     8   am
    21     7     9    2
    22    17    18   ar
    23    18    19   ar
    24    19    20   ar
    25    20    21    1
    26    20    15   ar
    27     6     1   ar
    28    29    24    1
    29    12    13    1
    30    22    23    1
    31    30    31    1
    32    30    32    1
    33     8    10    1
    34     8    11    1
@<TRIPOS>MOLECULE
*****
 32 34 0 0 0
SMALL
GASTEIGER

@<TRIPOS>ATOM
      1 C          63.7518   89.6309   13.8743 C.ar    1  UNL1        0.0764
      2 C          64.2143   88.4221   14.6326 C.ar    1  UNL1        0.0522
      3 C          64.0202   87.0528   14.0517 C.ar    1  UNL1        0.1515
      4 N          63.3636   86.8923   12.7126 N.ar    1  UNL1       -0.1329
      5 N          62.9011   88.1011   11.9544 N.ar    1  UNL1       -0.1409
      6 C          63.0952   89.4704   12.5352 C.ar    1  UNL1        0.1691
      7 C          62.6327   90.6792   11.7769 C.2     1  UNL1        0.2635
      8 N          61.1675   90.9079   11.5515 N.am    1  UNL1       -0.3240
      9 O          63.6354   91.6593   11.2440 O.2     1  UNL1       -0.2686
     10 H          60.5094   90.2646   11.9013 H       1  UNL1        0.1453
     11 H          60.8639   91.7012   11.0538 H       1  UNL1        0.1453
     12 N          63.9458   91.0002   14.4551 N.pl3   1  UNL1       -0.2965
     13 H          63.1648   91.5371   14.7217 H       1  UNL1        0.1537
     14 C          68.7523   91.7552   12.6309 C.3     1  UNL1        0.0546
     15 C          67.7331   91.9290   13.7177 C.ar    1  UNL1        0.0881
     16 N          66.3491   91.3777   13.5430 N.ar    1  UNL1       -0.2326
     17 C          65.3299   91.5515   14.6298 C.ar    1  UNL1        0.1319
     18 C          65.6947   92.2766   15.8912 C.ar    1  UNL1        0.0367
     19 C          67.0787   92.8279   16.0658 C.ar    1  UNL1        0.0337
     20 C          68.0980   92.6541   14.9790 C.ar    1  UNL1        0.1537
     21 F          69.4820   93.2054   15.1537 F       1  UNL1       -0.2029
     22 N          64.4827   85.8440   14.8099 N.pl3   1  UNL1       -0.3170
     23 H          65.1312   85.9419   15.5442 H       1  UNL1        0.1482
     24 C          63.9572   84.4862   14.4494 C.3     1  UNL1        0.0845
     25 C          64.6812   83.6455   13.4399 C.3     1  UNL1        0.0209
     26 C          64.1556   82.2876   13.0794 C.3     1  UNL1        0.0018
     27 C          62.9060   81.7704   13.7283 C.3     1  UNL1        0.0015
     28 C          62.1820   82.6111   14.7378 C.3     1  UNL1        0.0172
     29 C          62.7076   83.9690   15.0984 C.3     1  UNL1        0.0689
     30 N          61.9836   84.8097   16.1078 N.3     1  UNL1       -0.3209
     31 H          62.4765   85.6943   16.2299 H       1  UNL1        0.1189
     32 H          61.9472   84.3149   16.9991 H       1  UNL1        0.1189
@<TRIPOS>BOND
     1    14    15    1
     2    15    16   ar
     3    16    17   ar
     4    17    12    1
     5    12     1    1
     6     1     2   ar
     7     2     3   ar
     8     3    22    1
     9    24    22    1
    10    24    25    1
    11    25    26    1
    12    26    27    1
    13    27    28    1
    14    28    29    1
    15    29    30    1
    16     3     4   ar
    17     4     5   ar
    18     5     6   ar
    19     6     7    1
    20     7     8   am
    21     7     9    2
    22    17    18   ar
    23    18    19   ar
    24    19    20   ar
    25    20    21    1
    26    20    15   ar
    27     6     1   ar
    28    29    24    1
    29    12    13    1
    30    22    23    1
    31    30    31    1
    32    30    32    1
    33     8    10    1
    34     8    11    1
@<TRIPOS>MOLECULE
*****
 32 34 0 0 0
SMALL
GASTEIGER

@<TRIPOS>ATOM
      1 C          63.9483   87.1410   15.4828 C.ar    1  UNL1        0.0764
      2 C          64.4742   88.0254   14.3912 C.ar    1  UNL1        0.0522
      3 C          63.9546   89.4248   14.2441 C.ar    1  UNL1        0.1515
      4 N          62.9091   89.9399   15.1885 N.ar    1  UNL1       -0.1329
      5 N          62.3834   89.0555   16.2800 N.ar    1  UNL1       -0.1409
      6 C          62.9030   87.6561   16.4272 C.ar    1  UNL1        0.1691
      7 C          62.3771   86.7717   17.5188 C.2     1  UNL1        0.2635
      8 N          62.8081   86.9951   18.9380 N.am    1  UNL1       -0.3240
      9 O          61.4203   85.6640   17.1910 O.2     1  UNL1       -0.2686
     10 H          63.4361   87.7222   19.1531 H       1  UNL1        0.1453
     11 H          62.4630   86.4147   19.6544 H       1  UNL1        0.1453
     12 N          64.4679   85.7416   15.6300 N.pl3   1  UNL1       -0.2965
     13 H          65.1662   85.5432   16.2951 H       1  UNL1        0.1537
     14 C          64.3655   83.2305   11.0821 C.3     1  UNL1        0.0546
     15 C          63.8725   83.3890   12.4898 C.ar    1  UNL1        0.0881
     16 N          64.4167   84.4860   13.3560 N.ar    1  UNL1       -0.2326
     17 C          63.9237   84.6445   14.7638 C.ar    1  UNL1        0.1319
     18 C          62.8865   83.7060   15.3054 C.ar    1  UNL1        0.0367
     19 C          62.3423   82.6090   14.4392 C.ar    1  UNL1        0.0337
     20 C          62.8353   82.4505   13.0314 C.ar    1  UNL1        0.1537
     21 F          62.2910   81.3534   12.1652 F       1  UNL1       -0.2029
     22 N          64.4803   90.3091   13.1526 N.pl3   1  UNL1       -0.3170
     23 H          64.3016   90.0872   12.2102 H       1  UNL1        0.1482
     24 C          65.2784   91.5316   13.4969 C.3     1  UNL1        0.0845
     25 C          65.8308   91.7014   14.8811 C.3     1  UNL1        0.0209
     26 C          66.6289   92.9240   15.2253 C.3     1  UNL1        0.0018
     27 C          66.8746   93.9766   14.1854 C.3     1  UNL1        0.0015
     28 C          66.3223   93.8068   12.8012 C.3     1  UNL1        0.0172
     29 C          65.5242   92.5843   12.4569 C.3     1  UNL1        0.0689
     30 N          64.9718   92.4145   11.0727 N.3     1  UNL1       -0.3209
     31 H          64.4603   91.5339   11.0164 H       1  UNL1        0.1189
     32 H          65.7381   92.4062   10.3995 H       1  UNL1        0.1189
@<TRIPOS>BOND
     1    14    15    1
     2    15    16   ar
     3    16    17   ar
     4    17    12    1
     5    12     1    1
     6     1     2   ar
     7     2     3   ar
     8     3    22    1
     9    24    22    1
    10    24    25    1
    11    25    26    1
    12    26    27    1
    13    27    28    1
    14    28    29    1
    15    29    30    1
    16     3     4   ar
    17     4     5   ar
    18     5     6   ar
    19     6     7    1
    20     7     8   am
    21     7     9    2
    22    17    18   ar
    23    18    19   ar
    24    19    20   ar
    25    20    21    1
    26    20    15   ar
    27     6     1   ar
    28    29    24    1
    29    12    13    1
    30    22    23    1
    31    30    31    1
    32    30    32    1
    33     8    10    1
    34     8    11    1
@<TRIPOS>MOLECULE
*****
 32 34 0 0 0
SMALL
GASTEIGER

@<TRIPOS>ATOM
      1 C          61.4753   87.4144   10.7593 C.ar    1  UNL1        0.0764
      2 C          62.3874   86.4843   11.5030 C.ar    1  UNL1        0.0522
      3 C          62.7520   85.1565   10.9079 C.ar    1  UNL1        0.1515
      4 N          62.2045   84.7589    9.5692 N.ar    1  UNL1       -0.1329
      5 N          61.2925   85.6890    8.8255 N.ar    1  UNL1       -0.1409
      6 C          60.9279   87.0168    9.4206 C.ar    1  UNL1        0.1691
      7 C          60.0158   87.9469    8.6769 C.2     1  UNL1        0.2635
      8 N          58.9245   87.3929    7.8097 N.am    1  UNL1       -0.3240
      9 O          60.1952   89.4310    8.8003 O.2     1  UNL1       -0.2686
     10 H          58.8067   86.4188    7.7287 H       1  UNL1        0.1453
     11 H          58.3259   88.0034    7.3216 H       1  UNL1        0.1453
     12 N          61.1107   88.7422   11.3543 N.pl3   1  UNL1       -0.2965
     13 H          60.1642   88.9960   11.4489 H       1  UNL1        0.1537
     14 C          64.0243   90.7571   15.1558 C.3     1  UNL1        0.0546
     15 C          63.6450   90.6907   13.7061 C.ar    1  UNL1        0.0881
     16 N          62.5675   89.7497   13.2551 N.ar    1  UNL1       -0.2326
     17 C          62.1883   89.6833   11.8053 C.ar    1  UNL1        0.1319
     18 C          62.8865   90.5579   10.8066 C.ar    1  UNL1        0.0367
     19 C          63.9640   91.4989   11.2576 C.ar    1  UNL1        0.0337
     20 C          64.3433   91.5653   12.7074 C.ar    1  UNL1        0.1537
     21 F          65.4208   92.5064   13.1584 F       1  UNL1       -0.2029
     22 N          63.6640   84.2264   11.6516 N.pl3   1  UNL1       -0.3170
     23 H          64.6295   84.4141   11.6952 H       1  UNL1        0.1482
     24 C          63.1051   83.0103   12.3287 C.3     1  UNL1        0.0845
     25 C          63.1451   81.6808   11.6354 C.3     1  UNL1        0.0209
     26 C          62.5861   80.4646   12.3126 C.3     1  UNL1        0.0018
     27 C          61.9871   80.5780   13.6831 C.3     1  UNL1        0.0015
     28 C          61.9471   81.9076   14.3765 C.3     1  UNL1        0.0172
     29 C          62.5060   83.1237   13.6993 C.3     1  UNL1        0.0689
     30 N          62.4660   84.4532   14.3926 N.3     1  UNL1       -0.3209
     31 H          62.8855   85.1628   13.7918 H       1  UNL1        0.1189
     32 H          62.9878   84.3965   15.2672 H       1  UNL1        0.1189
@<TRIPOS>BOND
     1    14    15    1
     2    15    16   ar
     3    16    17   ar
     4    17    12    1
     5    12     1    1
     6     1     2   ar
     7     2     3   ar
     8     3    22    1
     9    24    22    1
    10    24    25    1
    11    25    26    1
    12    26    27    1
    13    27    28    1
    14    28    29    1
    15    29    30    1
    16     3     4   ar
    17     4     5   ar
    18     5     6   ar
    19     6     7    1
    20     7     8   am
    21     7     9    2
    22    17    18   ar
    23    18    19   ar
    24    19    20   ar
    25    20    21    1
    26    20    15   ar
    27     6     1   ar
    28    29    24    1
    29    12    13    1
    30    22    23    1
    31    30    31    1
    32    30    32    1
    33     8    10    1
    34     8    11    1
