@<TRIPOS>MOLECULE
*****
 35 39 0 0 0
SMALL
GASTEIGER

@<TRIPOS>ATOM
      1 C          62.9962   87.2652   12.3872 C.2     1  UNL1        0.2507
      2 O          63.5646   87.6295   13.7267 O.2     1  UNL1       -0.2698
      3 N          62.3154   88.3090   11.5523 N.am    1  UNL1       -0.2723
      4 C          61.7471   87.9446   10.2128 C.3     1  UNL1        0.1257
      5 C          61.0663   88.9884    9.3779 C.3     1  UNL1        0.1637
      6 O          60.9539   90.3965    9.8825 O.3     1  UNL1       -0.3502
      7 C          61.5222   90.7609   11.2220 C.3     1  UNL1        0.1622
      8 C          62.2030   89.7171   12.0569 C.3     1  UNL1        0.1097
      9 C          63.2476   84.1810    9.9025 C.ar    1  UNL1        0.1494
     10 C          63.1351   85.5891   10.4070 C.ar    1  UNL1        0.0439
     11 C          63.1087   85.8571   11.8826 C.ar    1  UNL1        0.0760
     12 C          63.1946   84.7170   12.8536 C.ar    1  UNL1        0.1083
     13 C          63.3070   83.3090   12.3491 C.ar    1  UNL1        0.0355
     14 C          63.3335   83.0409   10.8735 C.ar    1  UNL1        0.0931
     15 CL         63.4459   81.6328   10.3689 Cl      1  UNL1       -0.0790
     16 N          63.1681   84.9851   14.3293 N.ar    1  UNL1       -0.1476
     17 N          64.3384   85.3992   15.1713 N.ar    1  UNL1       -0.1447
     18 C          63.8603   85.5562   16.5844 C.ar    1  UNL1        0.1446
     19 C          62.3945   85.2392   16.6157 C.ar    1  UNL1        0.1446
     20 N          61.9667   84.8863   15.2220 N.ar    1  UNL1       -0.1447
     21 C          62.7156   84.9247    7.4706 C.3     1  UNL1        0.2525
     22 O          63.2741   83.9129    8.4268 O.3     1  UNL1       -0.4706
     23 C          62.7713   90.0815   13.3964 C.3     1  UNL1        0.0510
     24 C          64.0666   90.8331   13.4823 C.ar    1  UNL1        0.0086
     25 C          64.6170   91.5200   12.2677 C.ar    1  UNL1        0.0189
     26 C          65.9122   92.2716   12.3536 C.ar    1  UNL1        0.1027
     27 C          66.6571   92.3363   13.6541 C.ar    1  UNL1        0.0232
     28 C          66.1066   91.6494   14.8686 C.ar    1  UNL1        0.0309
     29 C          64.8113   90.8977   14.7827 C.ar    1  UNL1        0.1363
     30 F          64.2609   90.2108   15.9972 F       1  UNL1       -0.2045
     31 N          66.4627   92.9586   11.1391 N.ar    1  UNL1       -0.1478
     32 N          65.8712   94.1588   10.4609 N.ar    1  UNL1       -0.1447
     33 C          66.7443   94.5079    9.2921 C.ar    1  UNL1        0.1446
     34 C          67.8753   93.5235    9.2480 C.ar    1  UNL1        0.1446
     35 N          67.7012   92.5660   10.3894 N.ar    1  UNL1       -0.1447
@<TRIPOS>BOND
     1    21    22    1
     2    22     9    1
     3     9    10   ar
     4    10    11   ar
     5    11     1    1
     6     1     2    2
     7     1     3   am
     8     3     4    1
     9     4     5    1
    10     5     6    1
    11     6     7    1
    12     7     8    1
    13     8    23    1
    14    23    24    1
    15    24    25   ar
    16    25    26   ar
    17    26    31    1
    18    31    32   ar
    19    32    33   ar
    20    33    34   ar
    21    34    35   ar
    22    26    27   ar
    23    27    28   ar
    24    28    29   ar
    25    29    30    1
    26    11    12   ar
    27    12    16    1
    28    16    17   ar
    29    17    18   ar
    30    18    19   ar
    31    19    20   ar
    32    12    13   ar
    33    13    14   ar
    34    14    15    1
    35    14     9   ar
    36     8     3    1
    37    29    24   ar
    38    20    16   ar
    39    35    31   ar
@<TRIPOS>MOLECULE
*****
 35 39 0 0 0
SMALL
GASTEIGER

@<TRIPOS>ATOM
      1 C          62.8471   87.2636   12.0870 C.2     1  UNL1        0.2507
      2 O          63.7375   87.8194   13.1585 O.2     1  UNL1       -0.2698
      3 N          61.7897   88.1283   11.4671 N.am    1  UNL1       -0.2723
      4 C          60.8993   87.5724   10.3955 C.3     1  UNL1        0.1257
      5 C          59.8419   88.4371    9.7756 C.3     1  UNL1        0.1637
      6 O          59.6750   89.8578   10.2274 O.3     1  UNL1       -0.3502
      7 C          60.5654   90.4136   11.2989 C.3     1  UNL1        0.1622
      8 C          61.6227   89.5489   11.9187 C.3     1  UNL1        0.1097
      9 C          63.1962   84.0978    9.7193 C.ar    1  UNL1        0.1494
     10 C          63.0293   85.5184   10.1709 C.ar    1  UNL1        0.0439
     11 C          63.0140   85.8429   11.6353 C.ar    1  UNL1        0.0760
     12 C          63.1657   84.7469   12.6480 C.ar    1  UNL1        0.1083
     13 C          63.3326   83.3263   12.1964 C.ar    1  UNL1        0.0355
     14 C          63.3479   83.0018   10.7320 C.ar    1  UNL1        0.0931
     15 CL         63.5148   81.5811   10.2803 Cl      1  UNL1       -0.0790
     16 N          63.1504   85.0714   14.1124 N.ar    1  UNL1       -0.1476
     17 N          62.0027   84.8503   15.0526 N.ar    1  UNL1       -0.1447
     18 C          62.4231   85.3163   16.4150 C.ar    1  UNL1        0.1446
     19 C          63.8307   85.8255   16.3168 C.ar    1  UNL1        0.1446
     20 N          64.2801   85.6742   14.8937 N.ar    1  UNL1       -0.1447
     21 C          62.7116   84.7773    7.2588 C.3     1  UNL1        0.2525
     22 O          63.2115   83.7732    8.2548 O.3     1  UNL1       -0.4706
     23 C          62.5131   90.1048   12.9903 C.3     1  UNL1        0.0510
     24 C          63.7048   90.9364   12.6185 C.ar    1  UNL1        0.0086
     25 C          64.7258   91.2911   13.6586 C.ar    1  UNL1        0.0189
     26 C          65.9175   92.1227   13.2868 C.ar    1  UNL1        0.1027
     27 C          66.0882   92.5997   11.8749 C.ar    1  UNL1        0.0232
     28 C          65.0672   92.2451   10.8349 C.ar    1  UNL1        0.0309
     29 C          63.8755   91.4134   11.2067 C.ar    1  UNL1        0.1363
     30 F          62.8545   91.0587   10.1666 F       1  UNL1       -0.2045
     31 N          66.9385   92.4774   14.3269 N.ar    1  UNL1       -0.1478
     32 N          67.4248   93.8592   14.6499 N.ar    1  UNL1       -0.1447
     33 C          68.4394   93.7483   15.7492 C.ar    1  UNL1        0.1446
     34 C          68.5801   92.2980   16.1056 C.ar    1  UNL1        0.1446
     35 N          67.6526   91.5126   15.2265 N.ar    1  UNL1       -0.1447
@<TRIPOS>BOND
     1    21    22    1
     2    22     9    1
     3     9    10   ar
     4    10    11   ar
     5    11     1    1
     6     1     2    2
     7     1     3   am
     8     3     4    1
     9     4     5    1
    10     5     6    1
    11     6     7    1
    12     7     8    1
    13     8    23    1
    14    23    24    1
    15    24    25   ar
    16    25    26   ar
    17    26    31    1
    18    31    32   ar
    19    32    33   ar
    20    33    34   ar
    21    34    35   ar
    22    26    27   ar
    23    27    28   ar
    24    28    29   ar
    25    29    30    1
    26    11    12   ar
    27    12    16    1
    28    16    17   ar
    29    17    18   ar
    30    18    19   ar
    31    19    20   ar
    32    12    13   ar
    33    13    14   ar
    34    14    15    1
    35    14     9   ar
    36     8     3    1
    37    29    24   ar
    38    20    16   ar
    39    35    31   ar
@<TRIPOS>MOLECULE
*****
 35 39 0 0 0
SMALL
GASTEIGER

@<TRIPOS>ATOM
      1 C          63.7543   86.8275   13.6432 C.2     1  UNL1        0.2507
      2 O          64.6111   87.2966   14.7815 O.2     1  UNL1       -0.2698
      3 N          63.2520   87.8106   12.6278 N.am    1  UNL1       -0.2723
      4 C          62.3952   87.3414   11.4894 C.3     1  UNL1        0.1257
      5 C          61.8928   88.3245   10.4740 C.3     1  UNL1        0.1637
      6 O          62.2473   89.7769   10.5969 O.3     1  UNL1       -0.3502
      7 C          63.1041   90.2460   11.7352 C.3     1  UNL1        0.1622
      8 C          63.6064   89.2629   12.7506 C.3     1  UNL1        0.1097
      9 C          63.2442   83.2101   12.0927 C.ar    1  UNL1        0.1494
     10 C          63.5987   84.6624   12.2155 C.ar    1  UNL1        0.0439
     11 C          63.3999   85.3751   13.5203 C.ar    1  UNL1        0.0760
     12 C          62.8465   84.6355   14.7022 C.ar    1  UNL1        0.1083
     13 C          62.4921   83.1832   14.5793 C.ar    1  UNL1        0.0355
     14 C          62.6909   82.4705   13.2746 C.ar    1  UNL1        0.0931
     15 CL         62.3364   81.0181   13.1517 Cl      1  UNL1       -0.0790
     16 N          62.6477   85.3483   16.0070 N.ar    1  UNL1       -0.1476
     17 N          61.3542   85.9128   16.5151 N.ar    1  UNL1       -0.1447
     18 C          61.6145   86.5351   17.8549 C.ar    1  UNL1        0.1446
     19 C          63.0689   86.3553   18.1747 C.ar    1  UNL1        0.1446
     20 N          63.7075   85.6219   17.0327 N.ar    1  UNL1       -0.1447
     21 C          64.2406   83.1435    9.6941 C.3     1  UNL1        0.2525
     22 O          63.4430   82.4973   10.7879 O.3     1  UNL1       -0.4706
     23 C          64.4633   89.7321   13.8890 C.3     1  UNL1        0.0510
     24 C          65.2018   91.0335   13.7849 C.ar    1  UNL1        0.0086
     25 C          65.7745   91.4677   12.4683 C.ar    1  UNL1        0.0189
     26 C          66.5131   92.7691   12.3642 C.ar    1  UNL1        0.1027
     27 C          66.6789   93.6364   13.5769 C.ar    1  UNL1        0.0232
     28 C          66.1062   93.2022   14.8935 C.ar    1  UNL1        0.0309
     29 C          65.3677   91.9008   14.9975 C.ar    1  UNL1        0.1363
     30 F          64.7950   91.4666   16.3141 F       1  UNL1       -0.2045
     31 N          67.0858   93.2033   11.0476 N.ar    1  UNL1       -0.1478
     32 N          67.7302   92.3104   10.0290 N.ar    1  UNL1       -0.1447
     33 C          68.1573   93.1619    8.8703 C.ar    1  UNL1        0.1446
     34 C          67.7768   94.5810    9.1727 C.ar    1  UNL1        0.1446
     35 N          67.1146   94.6065   10.5184 N.ar    1  UNL1       -0.1447
@<TRIPOS>BOND
     1    21    22    1
     2    22     9    1
     3     9    10   ar
     4    10    11   ar
     5    11     1    1
     6     1     2    2
     7     1     3   am
     8     3     4    1
     9     4     5    1
    10     5     6    1
    11     6     7    1
    12     7     8    1
    13     8    23    1
    14    23    24    1
    15    24    25   ar
    16    25    26   ar
    17    26    31    1
    18    31    32   ar
    19    32    33   ar
    20    33    34   ar
    21    34    35   ar
    22    26    27   ar
    23    27    28   ar
    24    28    29   ar
    25    29    30    1
    26    11    12   ar
    27    12    16    1
    28    16    17   ar
    29    17    18   ar
    30    18    19   ar
    31    19    20   ar
    32    12    13   ar
    33    13    14   ar
    34    14    15    1
    35    14     9   ar
    36     8     3    1
    37    29    24   ar
    38    20    16   ar
    39    35    31   ar
@<TRIPOS>MOLECULE
*****
 35 39 0 0 0
SMALL
GASTEIGER

@<TRIPOS>ATOM
      1 C          63.1295   86.8671   12.7942 C.2     1  UNL1        0.2507
      2 O          63.5449   87.8607   13.8383 O.2     1  UNL1       -0.2698
      3 N          62.4193   87.3315   11.5573 N.am    1  UNL1       -0.2723
      4 C          62.0039   86.3378   10.5132 C.3     1  UNL1        0.1257
      5 C          61.2937   86.8022    9.2763 C.3     1  UNL1        0.1637
      6 O          60.9991   88.2603    9.0834 O.3     1  UNL1       -0.3502
      7 C          61.4145   89.2539   10.1274 C.3     1  UNL1        0.1622
      8 C          62.1247   88.7895   11.3644 C.3     1  UNL1        0.1097
      9 C          64.0541   83.0908   11.9979 C.ar    1  UNL1        0.1494
     10 C          63.7595   84.5488   11.8049 C.ar    1  UNL1        0.0439
     11 C          63.4241   85.4090   12.9871 C.ar    1  UNL1        0.0760
     12 C          63.3834   84.8111   14.3622 C.ar    1  UNL1        0.1083
     13 C          63.6780   83.3531   14.5551 C.ar    1  UNL1        0.0355
     14 C          64.0134   82.4929   13.3730 C.ar    1  UNL1        0.0931
     15 CL         64.3080   81.0348   13.5659 Cl      1  UNL1       -0.0790
     16 N          63.0480   85.6714   15.5444 N.ar    1  UNL1       -0.1476
     17 N          61.8948   85.4702   16.4824 N.ar    1  UNL1       -0.1447
     18 C          61.9410   86.5583   17.5138 C.ar    1  UNL1        0.1446
     19 C          63.1228   87.4319   17.2134 C.ar    1  UNL1        0.1446
     20 N          63.8069   86.8838   15.9962 N.ar    1  UNL1       -0.1447
     21 C          63.3789   81.2568   10.2859 C.3     1  UNL1        0.2525
     22 O          64.3895   82.2305   10.8157 O.3     1  UNL1       -0.4706
     23 C          62.5401   89.7833   12.4084 C.3     1  UNL1        0.0510
     24 C          63.6584   90.7428   12.1277 C.ar    1  UNL1        0.0086
     25 C          64.6534   91.0697   13.2015 C.ar    1  UNL1        0.0189
     26 C          65.7717   92.0292   12.9209 C.ar    1  UNL1        0.1027
     27 C          65.8950   92.6618   11.5663 C.ar    1  UNL1        0.0232
     28 C          64.8999   92.3349   10.4925 C.ar    1  UNL1        0.0309
     29 C          63.7816   91.3753   10.7733 C.ar    1  UNL1        0.1363
     30 F          62.7866   91.0484    9.6995 F       1  UNL1       -0.2045
     31 N          66.7667   92.3561   13.9946 N.ar    1  UNL1       -0.1478
     32 N          68.2598   92.3104   13.8567 N.ar    1  UNL1       -0.1447
     33 C          68.8592   92.7122   15.1717 C.ar    1  UNL1        0.1446
     34 C          67.7367   93.0062   16.1224 C.ar    1  UNL1        0.1446
     35 N          66.4436   92.7861   15.3949 N.ar    1  UNL1       -0.1447
@<TRIPOS>BOND
     1    21    22    1
     2    22     9    1
     3     9    10   ar
     4    10    11   ar
     5    11     1    1
     6     1     2    2
     7     1     3   am
     8     3     4    1
     9     4     5    1
    10     5     6    1
    11     6     7    1
    12     7     8    1
    13     8    23    1
    14    23    24    1
    15    24    25   ar
    16    25    26   ar
    17    26    31    1
    18    31    32   ar
    19    32    33   ar
    20    33    34   ar
    21    34    35   ar
    22    26    27   ar
    23    27    28   ar
    24    28    29   ar
    25    29    30    1
    26    11    12   ar
    27    12    16    1
    28    16    17   ar
    29    17    18   ar
    30    18    19   ar
    31    19    20   ar
    32    12    13   ar
    33    13    14   ar
    34    14    15    1
    35    14     9   ar
    36     8     3    1
    37    29    24   ar
    38    20    16   ar
    39    35    31   ar
@<TRIPOS>MOLECULE
*****
 35 39 0 0 0
SMALL
GASTEIGER

@<TRIPOS>ATOM
      1 C          62.6010   88.7179   11.7701 C.2     1  UNL1        0.2507
      2 O          62.4421   90.2093   11.7548 O.2     1  UNL1       -0.2698
      3 N          63.3337   88.0533   12.8977 N.am    1  UNL1       -0.2723
      4 C          63.4926   86.5617   12.9131 C.3     1  UNL1        0.1257
      5 C          64.2253   85.8971   14.0407 C.3     1  UNL1        0.1637
      6 O          64.7990   86.7241   15.1530 O.3     1  UNL1       -0.3502
      7 C          64.6401   88.2155   15.1376 C.3     1  UNL1        0.1622
      8 C          63.9074   88.8801   14.0100 C.3     1  UNL1        0.1097
      9 C          62.2998   86.0271    8.8686 C.ar    1  UNL1        0.1494
     10 C          62.8735   86.8539    9.9809 C.ar    1  UNL1        0.0439
     11 C          62.0273   87.8910   10.6578 C.ar    1  UNL1        0.0760
     12 C          60.6073   88.1012   10.2226 C.ar    1  UNL1        0.1083
     13 C          60.0336   87.2743    9.1104 C.ar    1  UNL1        0.0355
     14 C          60.8798   86.2373    8.4334 C.ar    1  UNL1        0.0931
     15 CL         60.3061   85.4103    7.3211 Cl      1  UNL1       -0.0790
     16 N          59.7611   89.1383   10.8997 N.ar    1  UNL1       -0.1476
     17 N          58.9516   88.9389   12.1467 N.ar    1  UNL1       -0.1447
     18 C          58.2660   90.2342   12.4663 C.ar    1  UNL1        0.1446
     19 C          58.6517   91.2341   11.4168 C.ar    1  UNL1        0.1446
     20 N          59.5757   90.5568   10.4486 N.ar    1  UNL1       -0.1447
     21 C          63.8093   83.9167    9.0029 C.3     1  UNL1        0.2525
     22 O          63.1461   84.9900    8.1916 O.3     1  UNL1       -0.4706
     23 C          63.7485   90.3716   13.9947 C.3     1  UNL1        0.0510
     24 C          64.9603   91.2546   13.9496 C.ar    1  UNL1        0.0086
     25 C          65.5980   91.5862   12.6330 C.ar    1  UNL1        0.0189
     26 C          66.8098   92.4691   12.5880 C.ar    1  UNL1        0.1027
     27 C          67.3838   93.0204   13.8594 C.ar    1  UNL1        0.0232
     28 C          66.7461   92.6888   15.1760 C.ar    1  UNL1        0.0309
     29 C          65.5342   91.8058   15.2210 C.ar    1  UNL1        0.1363
     30 F          64.8965   91.4742   16.5375 F       1  UNL1       -0.2045
     31 N          67.4475   92.8008   11.2714 N.ar    1  UNL1       -0.1478
     32 N          67.2139   94.0453   10.4672 N.ar    1  UNL1       -0.1447
     33 C          68.0529   93.9598    9.2267 C.ar    1  UNL1        0.1446
     34 C          68.8051   92.6625    9.2642 C.ar    1  UNL1        0.1446
     35 N          68.4309   91.9463   10.5280 N.ar    1  UNL1       -0.1447
@<TRIPOS>BOND
     1    21    22    1
     2    22     9    1
     3     9    10   ar
     4    10    11   ar
     5    11     1    1
     6     1     2    2
     7     1     3   am
     8     3     4    1
     9     4     5    1
    10     5     6    1
    11     6     7    1
    12     7     8    1
    13     8    23    1
    14    23    24    1
    15    24    25   ar
    16    25    26   ar
    17    26    31    1
    18    31    32   ar
    19    32    33   ar
    20    33    34   ar
    21    34    35   ar
    22    26    27   ar
    23    27    28   ar
    24    28    29   ar
    25    29    30    1
    26    11    12   ar
    27    12    16    1
    28    16    17   ar
    29    17    18   ar
    30    18    19   ar
    31    19    20   ar
    32    12    13   ar
    33    13    14   ar
    34    14    15    1
    35    14     9   ar
    36     8     3    1
    37    29    24   ar
    38    20    16   ar
    39    35    31   ar
@<TRIPOS>MOLECULE
*****
 35 39 0 0 0
SMALL
GASTEIGER

@<TRIPOS>ATOM
      1 C          63.3349   88.5140   12.9099 C.2     1  UNL1        0.2507
      2 O          63.5121   89.4744   11.7715 O.2     1  UNL1       -0.2698
      3 N          63.3337   89.0176   14.3229 N.am    1  UNL1       -0.2723
      4 C          63.1566   88.0570   15.4613 C.3     1  UNL1        0.1257
      5 C          63.1553   88.5606   16.8742 C.3     1  UNL1        0.1637
      6 O          63.3312   90.0248   17.1487 O.3     1  UNL1       -0.3502
      7 C          63.5084   90.9853   16.0103 C.3     1  UNL1        0.1622
      8 C          63.5096   90.4817   14.5974 C.3     1  UNL1        0.1097
      9 C          63.7870   84.5772   13.1268 C.ar    1  UNL1        0.1494
     10 C          63.9629   86.0413   13.4013 C.ar    1  UNL1        0.0439
     11 C          63.1590   87.0498   12.6355 C.ar    1  UNL1        0.0760
     12 C          62.1791   86.5942   11.5951 C.ar    1  UNL1        0.1083
     13 C          62.0032   85.1301   11.3206 C.ar    1  UNL1        0.0355
     14 C          62.8071   84.1216   12.0865 C.ar    1  UNL1        0.0931
     15 CL         62.6312   82.6574   11.8120 Cl      1  UNL1       -0.0790
     16 N          61.3752   87.6028   10.8292 N.ar    1  UNL1       -0.1476
     17 N          60.3029   88.4874   11.3929 N.ar    1  UNL1       -0.1447
     18 C          59.7674   89.3351   10.2774 C.ar    1  UNL1        0.1446
     19 C          60.5088   88.9745    9.0242 C.ar    1  UNL1        0.1446
     20 N          61.5024   87.9039    9.3653 N.ar    1  UNL1       -0.1447
     21 C          64.2346   83.2485   15.3142 C.3     1  UNL1        0.2525
     22 O          64.5909   83.5685   13.8927 O.3     1  UNL1       -0.4706
     23 C          63.6867   91.4423   13.4589 C.3     1  UNL1        0.0510
     24 C          65.0637   91.8721   13.0476 C.ar    1  UNL1        0.0086
     25 C          65.2420   92.8157   11.8953 C.ar    1  UNL1        0.0189
     26 C          66.6189   93.2455   11.4840 C.ar    1  UNL1        0.1027
     27 C          67.8177   92.7317   12.2251 C.ar    1  UNL1        0.0232
     28 C          67.6394   91.7882   13.3774 C.ar    1  UNL1        0.0309
     29 C          66.2624   91.3583   13.7887 C.ar    1  UNL1        0.1363
     30 F          66.0841   90.4148   14.9410 F       1  UNL1       -0.2045
     31 N          66.7972   94.1891   10.3317 N.ar    1  UNL1       -0.1478
     32 N          67.8105   94.0579    9.2334 N.ar    1  UNL1       -0.1447
     33 C          67.6330   95.2173    8.2982 C.ar    1  UNL1        0.1446
     34 C          66.5101   96.0649    8.8185 C.ar    1  UNL1        0.1446
     35 N          65.9936   95.4294   10.0752 N.ar    1  UNL1       -0.1447
@<TRIPOS>BOND
     1    21    22    1
     2    22     9    1
     3     9    10   ar
     4    10    11   ar
     5    11     1    1
     6     1     2    2
     7     1     3   am
     8     3     4    1
     9     4     5    1
    10     5     6    1
    11     6     7    1
    12     7     8    1
    13     8    23    1
    14    23    24    1
    15    24    25   ar
    16    25    26   ar
    17    26    31    1
    18    31    32   ar
    19    32    33   ar
    20    33    34   ar
    21    34    35   ar
    22    26    27   ar
    23    27    28   ar
    24    28    29   ar
    25    29    30    1
    26    11    12   ar
    27    12    16    1
    28    16    17   ar
    29    17    18   ar
    30    18    19   ar
    31    19    20   ar
    32    12    13   ar
    33    13    14   ar
    34    14    15    1
    35    14     9   ar
    36     8     3    1
    37    29    24   ar
    38    20    16   ar
    39    35    31   ar
@<TRIPOS>MOLECULE
*****
 35 39 0 0 0
SMALL
GASTEIGER

@<TRIPOS>ATOM
      1 C          62.8507   88.9749   12.0364 C.2     1  UNL1        0.2507
      2 O          62.9196   87.7194   12.8543 O.2     1  UNL1       -0.2698
      3 N          61.8957   89.0674   10.8834 N.am    1  UNL1       -0.2723
      4 C          61.8268   90.3230   10.0655 C.3     1  UNL1        0.1257
      5 C          60.8718   90.4156    8.9125 C.3     1  UNL1        0.1637
      6 O          59.9857   89.2525    8.5774 O.3     1  UNL1       -0.3502
      7 C          60.0546   87.9970    9.3953 C.3     1  UNL1        0.1622
      8 C          61.0096   87.9045   10.5483 C.3     1  UNL1        0.1097
      9 C          65.0037   92.2852   11.6407 C.ar    1  UNL1        0.1494
     10 C          64.1176   91.1222   11.3056 C.ar    1  UNL1        0.0439
     11 C          63.7368   90.1379   12.3715 C.ar    1  UNL1        0.0760
     12 C          64.2421   90.3166   13.7725 C.ar    1  UNL1        0.1083
     13 C          65.1282   91.4796   14.1076 C.ar    1  UNL1        0.0355
     14 C          65.5090   92.4638   13.0417 C.ar    1  UNL1        0.0931
     15 CL         66.3951   93.6269   13.3768 Cl      1  UNL1       -0.0790
     16 N          63.8612   89.3323   14.8384 N.ar    1  UNL1       -0.1476
     17 N          62.9128   89.5841   15.9729 N.ar    1  UNL1       -0.1447
     18 C          62.8273   88.3308   16.7926 C.ar    1  UNL1        0.1446
     19 C          63.7229   87.3043   16.1646 C.ar    1  UNL1        0.1446
     20 N          64.3619   87.9233   14.9569 N.ar    1  UNL1       -0.1447
     21 C          66.7424   93.2008    9.9411 C.3     1  UNL1        0.2525
     22 O          65.3846   93.2695   10.5748 O.3     1  UNL1       -0.4706
     23 C          61.0785   86.6489   11.3662 C.3     1  UNL1        0.0510
     24 C          61.9631   85.5183   10.9315 C.ar    1  UNL1        0.0086
     25 C          62.1235   84.3118   11.8082 C.ar    1  UNL1        0.0189
     26 C          63.0082   83.1811   11.3736 C.ar    1  UNL1        0.1027
     27 C          63.7325   83.2570   10.0621 C.ar    1  UNL1        0.0232
     28 C          63.5720   84.4634    9.1854 C.ar    1  UNL1        0.0309
     29 C          62.6873   85.5941    9.6201 C.ar    1  UNL1        0.1363
     30 F          62.5269   86.8006    8.7434 F       1  UNL1       -0.2045
     31 N          63.1686   81.9746   12.2503 N.ar    1  UNL1       -0.1478
     32 N          64.0887   81.8575   13.4292 N.ar    1  UNL1       -0.1447
     33 C          63.9259   80.4839   14.0095 C.ar    1  UNL1        0.1446
     34 C          62.9052   79.7521   13.1893 C.ar    1  UNL1        0.1446
     35 N          62.4372   80.6735   12.1020 N.ar    1  UNL1       -0.1447
@<TRIPOS>BOND
     1    21    22    1
     2    22     9    1
     3     9    10   ar
     4    10    11   ar
     5    11     1    1
     6     1     2    2
     7     1     3   am
     8     3     4    1
     9     4     5    1
    10     5     6    1
    11     6     7    1
    12     7     8    1
    13     8    23    1
    14    23    24    1
    15    24    25   ar
    16    25    26   ar
    17    26    31    1
    18    31    32   ar
    19    32    33   ar
    20    33    34   ar
    21    34    35   ar
    22    26    27   ar
    23    27    28   ar
    24    28    29   ar
    25    29    30    1
    26    11    12   ar
    27    12    16    1
    28    16    17   ar
    29    17    18   ar
    30    18    19   ar
    31    19    20   ar
    32    12    13   ar
    33    13    14   ar
    34    14    15    1
    35    14     9   ar
    36     8     3    1
    37    29    24   ar
    38    20    16   ar
    39    35    31   ar
@<TRIPOS>MOLECULE
*****
 35 39 0 0 0
SMALL
GASTEIGER

@<TRIPOS>ATOM
      1 C          62.3901   87.8663   11.1345 C.2     1  UNL1        0.2507
      2 O          63.5031   88.5050   10.3580 O.2     1  UNL1       -0.2698
      3 N          61.1458   88.6459   11.4411 N.am    1  UNL1       -0.2723
      4 C          60.0327   88.0070   12.2177 C.3     1  UNL1        0.1257
      5 C          58.7884   88.7866   12.5242 C.3     1  UNL1        0.1637
      6 O          58.6572   90.2051   12.0542 O.3     1  UNL1       -0.3502
      7 C          59.7703   90.8438   11.2777 C.3     1  UNL1        0.1622
      8 C          61.0146   90.0642   10.9711 C.3     1  UNL1        0.1097
      9 C          63.2585   84.7365   13.4149 C.ar    1  UNL1        0.1494
     10 C          63.1273   86.1549   12.9450 C.ar    1  UNL1        0.0439
     11 C          62.5213   86.4478   11.6045 C.ar    1  UNL1        0.0760
     12 C          62.0464   85.3223   10.7340 C.ar    1  UNL1        0.1083
     13 C          62.1775   83.9039   11.2039 C.ar    1  UNL1        0.0355
     14 C          62.7836   83.6110   12.5444 C.ar    1  UNL1        0.0931
     15 CL         62.9148   82.1925   13.0144 Cl      1  UNL1       -0.0790
     16 N          61.4403   85.6153    9.3935 N.ar    1  UNL1       -0.1476
     17 N          60.1386   86.3197    9.1494 N.ar    1  UNL1       -0.1447
     18 C          59.9232   86.3951    7.6669 C.ar    1  UNL1        0.1446
     19 C          61.0919   85.7373    6.9947 C.ar    1  UNL1        0.1446
     20 N          62.0294   85.2554    8.0618 N.ar    1  UNL1       -0.1447
     21 C          63.9134   85.5127   15.8063 C.3     1  UNL1        0.2525
     22 O          63.8646   84.4435   14.7554 O.3     1  UNL1       -0.4706
     23 C          62.1276   90.7031   10.1946 C.3     1  UNL1        0.0510
     24 C          63.2704   91.3521   10.9177 C.ar    1  UNL1        0.0086
     25 C          64.2015   92.2680   10.1800 C.ar    1  UNL1        0.0189
     26 C          65.3442   92.9170   10.9031 C.ar    1  UNL1        0.1027
     27 C          65.5559   92.6501   12.3640 C.ar    1  UNL1        0.0232
     28 C          64.6248   91.7342   13.1017 C.ar    1  UNL1        0.0309
     29 C          63.4820   91.0852   12.3785 C.ar    1  UNL1        0.1363
     30 F          62.5508   90.1693   13.1162 F       1  UNL1       -0.2045
     31 N          66.2754   93.8328   10.1655 N.ar    1  UNL1       -0.1478
     32 N          66.1887   95.3298   10.1217 N.ar    1  UNL1       -0.1447
     33 C          67.3164   95.8346    9.2712 C.ar    1  UNL1        0.1446
     34 C          68.1001   94.6498    8.7893 C.ar    1  UNL1        0.1446
     35 N          67.4566   93.4127    9.3420 N.ar    1  UNL1       -0.1447
@<TRIPOS>BOND
     1    21    22    1
     2    22     9    1
     3     9    10   ar
     4    10    11   ar
     5    11     1    1
     6     1     2    2
     7     1     3   am
     8     3     4    1
     9     4     5    1
    10     5     6    1
    11     6     7    1
    12     7     8    1
    13     8    23    1
    14    23    24    1
    15    24    25   ar
    16    25    26   ar
    17    26    31    1
    18    31    32   ar
    19    32    33   ar
    20    33    34   ar
    21    34    35   ar
    22    26    27   ar
    23    27    28   ar
    24    28    29   ar
    25    29    30    1
    26    11    12   ar
    27    12    16    1
    28    16    17   ar
    29    17    18   ar
    30    18    19   ar
    31    19    20   ar
    32    12    13   ar
    33    13    14   ar
    34    14    15    1
    35    14     9   ar
    36     8     3    1
    37    29    24   ar
    38    20    16   ar
    39    35    31   ar
@<TRIPOS>MOLECULE
*****
 35 39 0 0 0
SMALL
GASTEIGER

@<TRIPOS>ATOM
      1 C          63.1100   87.7921   12.5199 C.2     1  UNL1        0.2507
      2 O          63.0567   88.6900   11.3196 O.2     1  UNL1       -0.2698
      3 N          63.2102   88.3833   13.8949 N.am    1  UNL1       -0.2723
      4 C          63.2636   87.4854   15.0953 C.3     1  UNL1        0.1257
      5 C          63.3638   88.0766   16.4702 C.3     1  UNL1        0.1637
      6 O          63.4107   89.5657   16.6448 O.3     1  UNL1       -0.3502
      7 C          63.3573   90.4635   15.4444 C.3     1  UNL1        0.1622
      8 C          63.2571   89.8724   14.0694 C.3     1  UNL1        0.1097
      9 C          63.8311   83.9279   13.0658 C.ar    1  UNL1        0.1494
     10 C          63.8780   85.4170   13.2404 C.ar    1  UNL1        0.0439
     11 C          63.0631   86.3030   12.3454 C.ar    1  UNL1        0.0760
     12 C          62.2014   85.7000   11.2760 C.ar    1  UNL1        0.1083
     13 C          62.1545   84.2109   11.1014 C.ar    1  UNL1        0.0355
     14 C          62.9693   83.3249   11.9964 C.ar    1  UNL1        0.0931
     15 CL         62.9225   81.8358   11.8219 Cl      1  UNL1       -0.0790
     16 N          61.3865   86.5861   10.3810 N.ar    1  UNL1       -0.1476
     17 N          61.5466   86.7262    8.8962 N.ar    1  UNL1       -0.1447
     18 C          60.5275   87.7143    8.4113 C.ar    1  UNL1        0.1446
     19 C          59.7376   88.1849    9.5965 C.ar    1  UNL1        0.1446
     20 N          60.2685   87.4876   10.8138 N.ar    1  UNL1       -0.1447
     21 C          64.1796   82.7535   15.3570 C.3     1  UNL1        0.2525
     22 O          64.6460   83.0418   13.9608 O.3     1  UNL1       -0.4706
     23 C          63.2037   90.7703   12.8690 C.3     1  UNL1        0.0510
     24 C          64.4084   91.5750   12.4802 C.ar    1  UNL1        0.0086
     25 C          65.4701   91.8747   13.4965 C.ar    1  UNL1        0.0189
     26 C          66.6748   92.6794   13.1077 C.ar    1  UNL1        0.1027
     27 C          66.8177   93.1845   11.7025 C.ar    1  UNL1        0.0232
     28 C          65.7560   92.8848   10.6862 C.ar    1  UNL1        0.0309
     29 C          64.5513   92.0801   11.0751 C.ar    1  UNL1        0.1363
     30 F          63.4896   91.7804   10.0587 F       1  UNL1       -0.2045
     31 N          67.7365   92.9791   14.1241 N.ar    1  UNL1       -0.1478
     32 N          69.1349   92.4363   14.1245 N.ar    1  UNL1       -0.1447
     33 C          69.8489   92.9959   15.3192 C.ar    1  UNL1        0.1446
     34 C          68.8918   93.8845   16.0570 C.ar    1  UNL1        0.1446
     35 N          67.5863   93.8741   15.3184 N.ar    1  UNL1       -0.1447
@<TRIPOS>BOND
     1    21    22    1
     2    22     9    1
     3     9    10   ar
     4    10    11   ar
     5    11     1    1
     6     1     2    2
     7     1     3   am
     8     3     4    1
     9     4     5    1
    10     5     6    1
    11     6     7    1
    12     7     8    1
    13     8    23    1
    14    23    24    1
    15    24    25   ar
    16    25    26   ar
    17    26    31    1
    18    31    32   ar
    19    32    33   ar
    20    33    34   ar
    21    34    35   ar
    22    26    27   ar
    23    27    28   ar
    24    28    29   ar
    25    29    30    1
    26    11    12   ar
    27    12    16    1
    28    16    17   ar
    29    17    18   ar
    30    18    19   ar
    31    19    20   ar
    32    12    13   ar
    33    13    14   ar
    34    14    15    1
    35    14     9   ar
    36     8     3    1
    37    29    24   ar
    38    20    16   ar
    39    35    31   ar
