@<TRIPOS>MOLECULE
*****
 25 28 0 0 0
SMALL
GASTEIGER

@<TRIPOS>ATOM
      1 N          64.2070   90.8872   13.7495 N.ar    1  UNL1       -0.3100
      2 C          65.3670   91.6596   13.1947 C.ar    1  UNL1        0.1317
      3 N          65.1149   91.8889   11.7339 N.ar    1  UNL1       -0.2300
      4 C          63.7992   91.2582   11.3859 C.ar    1  UNL1        0.0984
      5 C          63.0396   91.1677   10.0956 C.ar    1  UNL1        0.0206
      6 C          61.7189   90.4580   10.0511 C.ar    1  UNL1        0.0016
      7 C          61.1577   89.8389   11.2968 C.ar    1  UNL1        0.0016
      8 C          61.9173   89.9295   12.5871 C.ar    1  UNL1        0.0188
      9 C          63.2381   90.6391   12.6316 C.ar    1  UNL1        0.0789
     10 C          66.5681   92.1216   13.9653 C.3     1  UNL1        0.1199
     11 C          67.9467   91.8298   13.4514 C.3     1  UNL1        0.0871
     12 N          69.1478   92.2918   14.2220 N.3     1  UNL1       -0.2957
     13 C          68.9703   93.0455   15.5066 C.3     1  UNL1        0.0804
     14 C          67.5917   93.3374   16.0206 C.3     1  UNL1        0.0750
     15 S          66.3906   92.8754   15.2499 S.3     1  UNL1       -0.1306
     16 H          69.6837   92.8951   13.5982 H       1  UNL1        0.1233
     17 C          64.0444   90.4411   15.1724 C.3     1  UNL1        0.1339
     18 C          63.5293   86.0714   16.1158 C.ar    1  UNL1        0.1387
     19 C          64.2725   86.4897   14.8819 C.ar    1  UNL1        0.0366
     20 C          64.4442   87.9463   14.5674 C.ar    1  UNL1        0.0007
     21 C          63.8727   88.9847   15.4869 C.ar    1  UNL1        0.0006
     22 C          63.1295   88.5663   16.7208 C.ar    1  UNL1        0.0007
     23 C          62.9578   87.1097   17.0352 C.ar    1  UNL1        0.0366
     24 C          62.9897   83.6508   15.3415 C.3     1  UNL1        0.2525
     25 O          63.3576   84.6149   16.4303 O.3     1  UNL1       -0.4714
@<TRIPOS>BOND
     1    24    25    1
     2    25    18    1
     3    18    19   ar
     4    19    20   ar
     5    20    21   ar
     6    21    17    1
     7    17     1    1
     8     1     2   ar
     9    10     2    1
    10    10    11    1
    11    11    12    1
    12    12    13    1
    13    13    14    1
    14    14    15    1
    15     2     3   ar
    16     3     4   ar
    17     4     5   ar
    18     5     6   ar
    19     6     7   ar
    20     7     8   ar
    21     8     9   ar
    22    21    22   ar
    23    22    23   ar
    24    23    18   ar
    25     9     1   ar
    26    15    10    1
    27     9     4   ar
    28    12    16    1
@<TRIPOS>MOLECULE
*****
 25 28 0 0 0
SMALL
GASTEIGER

@<TRIPOS>ATOM
      1 N          62.4100   88.2064   11.9543 N.ar    1  UNL1       -0.3100
      2 C          61.8868   87.3050   10.8755 C.ar    1  UNL1        0.1317
      3 N          62.3722   85.9141   11.1578 N.ar    1  UNL1       -0.2300
      4 C          63.1953   85.9558   12.4111 C.ar    1  UNL1        0.0984
      5 C          63.9265   84.8868   13.1677 C.ar    1  UNL1        0.0206
      6 C          64.6811   85.2345   14.4165 C.ar    1  UNL1        0.0016
      7 C          64.7045   86.6513   14.9088 C.ar    1  UNL1        0.0016
      8 C          63.9733   87.7203   14.1522 C.ar    1  UNL1        0.0188
      9 C          63.2187   87.3725   12.9034 C.ar    1  UNL1        0.0789
     10 C          61.0289   87.7215    9.7176 C.3     1  UNL1        0.1199
     11 C          60.9319   89.1695    9.3388 C.3     1  UNL1        0.0871
     12 N          60.0740   89.5860    8.1809 N.3     1  UNL1       -0.2957
     13 C          59.3132   88.5543    7.4019 C.3     1  UNL1        0.0804
     14 C          59.4102   87.1063    7.7808 C.3     1  UNL1        0.0750
     15 S          60.2681   86.6898    8.9387 S.3     1  UNL1       -0.1306
     16 H          60.6851   90.0636    7.5185 H       1  UNL1        0.1233
     17 C          62.1671   89.6825   12.0647 C.3     1  UNL1        0.1339
     18 C          65.6125   92.5597   11.7469 C.ar    1  UNL1        0.1387
     19 C          64.7972   92.2288   10.5320 C.ar    1  UNL1        0.0366
     20 C          63.6488   91.2697   10.6380 C.ar    1  UNL1        0.0007
     21 C          63.3155   90.6415   11.9588 C.ar    1  UNL1        0.0006
     22 C          64.1308   90.9725   13.1736 C.ar    1  UNL1        0.0007
     23 C          65.2792   91.9316   13.0676 C.ar    1  UNL1        0.0366
     24 C          66.5261   94.9197   11.1587 C.3     1  UNL1        0.2525
     25 O          66.7609   93.5188   11.6410 O.3     1  UNL1       -0.4714
@<TRIPOS>BOND
     1    24    25    1
     2    25    18    1
     3    18    19   ar
     4    19    20   ar
     5    20    21   ar
     6    21    17    1
     7    17     1    1
     8     1     2   ar
     9    10     2    1
    10    10    11    1
    11    11    12    1
    12    12    13    1
    13    13    14    1
    14    14    15    1
    15     2     3   ar
    16     3     4   ar
    17     4     5   ar
    18     5     6   ar
    19     6     7   ar
    20     7     8   ar
    21     8     9   ar
    22    21    22   ar
    23    22    23   ar
    24    23    18   ar
    25     9     1   ar
    26    15    10    1
    27     9     4   ar
    28    12    16    1
@<TRIPOS>MOLECULE
*****
 25 28 0 0 0
SMALL
GASTEIGER

@<TRIPOS>ATOM
      1 N          63.2996   83.3717   12.3979 N.ar    1  UNL1       -0.3100
      2 C          63.0200   83.2796   13.8687 C.ar    1  UNL1        0.1317
      3 N          62.6777   81.8543   14.1871 N.ar    1  UNL1       -0.2300
      4 C          62.7458   81.0655   12.9130 C.ar    1  UNL1        0.0984
      5 C          62.5075   79.6145   12.6170 C.ar    1  UNL1        0.0206
      6 C          62.6536   79.1013   11.2151 C.ar    1  UNL1        0.0016
      7 C          63.0380   80.0391   10.1093 C.ar    1  UNL1        0.0016
      8 C          63.2763   81.4901   10.4054 C.ar    1  UNL1        0.0188
      9 C          63.1302   82.0033   11.8073 C.ar    1  UNL1        0.0789
     10 C          63.0732   84.4137   14.8490 C.3     1  UNL1        0.1199
     11 C          62.0254   84.5329   15.9157 C.3     1  UNL1        0.0871
     12 N          62.0787   85.6669   16.8960 N.3     1  UNL1       -0.2957
     13 C          63.1798   86.6819   16.8097 C.3     1  UNL1        0.0804
     14 C          64.2276   86.5627   15.7430 C.3     1  UNL1        0.0750
     15 S          64.1743   85.4287   14.7627 S.3     1  UNL1       -0.1306
     16 H          62.1344   85.2504   17.8254 H       1  UNL1        0.1233
     17 C          63.6817   84.6140   11.6491 C.3     1  UNL1        0.1339
     18 C          60.9073   86.3088    8.5378 C.ar    1  UNL1        0.1387
     19 C          60.6146   86.5130    9.9947 C.ar    1  UNL1        0.0366
     20 C          61.5394   85.9481   11.0318 C.ar    1  UNL1        0.0007
     21 C          62.7569   85.1789   10.6120 C.ar    1  UNL1        0.0006
     22 C          63.0496   84.9748    9.1551 C.ar    1  UNL1        0.0007
     23 C          62.1248   85.5397    8.1180 C.ar    1  UNL1        0.0366
     24 C          59.3493   88.2171    7.7123 C.3     1  UNL1        0.2525
     25 O          59.9825   86.8738    7.5007 O.3     1  UNL1       -0.4714
@<TRIPOS>BOND
     1    24    25    1
     2    25    18    1
     3    18    19   ar
     4    19    20   ar
     5    20    21   ar
     6    21    17    1
     7    17     1    1
     8     1     2   ar
     9    10     2    1
    10    10    11    1
    11    11    12    1
    12    12    13    1
    13    13    14    1
    14    14    15    1
    15     2     3   ar
    16     3     4   ar
    17     4     5   ar
    18     5     6   ar
    19     6     7   ar
    20     7     8   ar
    21     8     9   ar
    22    21    22   ar
    23    22    23   ar
    24    23    18   ar
    25     9     1   ar
    26    15    10    1
    27     9     4   ar
    28    12    16    1
@<TRIPOS>MOLECULE
*****
 25 28 0 0 0
SMALL
GASTEIGER

@<TRIPOS>ATOM
      1 N          63.7394   88.2096   13.4191 N.ar    1  UNL1       -0.3100
      2 C          63.7844   89.7072   13.3487 C.ar    1  UNL1        0.1317
      3 N          63.1028   90.1323   12.0819 N.ar    1  UNL1       -0.2300
      4 C          62.6365   88.8974   11.3694 C.ar    1  UNL1        0.0984
      5 C          61.9046   88.7016   10.0749 C.ar    1  UNL1        0.0206
      6 C          61.5660   87.3173    9.6068 C.ar    1  UNL1        0.0016
      7 C          61.9595   86.1289   10.4332 C.ar    1  UNL1        0.0016
      8 C          62.6915   86.3248   11.7277 C.ar    1  UNL1        0.0188
      9 C          63.0300   87.7091   12.1958 C.ar    1  UNL1        0.0789
     10 C          64.4024   90.6196   14.3663 C.3     1  UNL1        0.1199
     11 C          63.6776   90.9170   15.6454 C.3     1  UNL1        0.0871
     12 N          64.2956   91.8294   16.6630 N.3     1  UNL1       -0.2957
     13 C          65.6386   92.4442   16.4017 C.3     1  UNL1        0.0804
     14 C          66.3635   92.1467   15.1226 C.3     1  UNL1        0.0750
     15 S          65.7454   91.2344   14.1050 S.3     1  UNL1       -0.1306
     16 H          64.3804   91.2930   17.5264 H       1  UNL1        0.1233
     17 C          64.3046   87.3612   14.5195 C.3     1  UNL1        0.1339
     18 C          63.4309   82.9484   14.6337 C.ar    1  UNL1        0.1387
     19 C          64.6224   83.4577   13.8780 C.ar    1  UNL1        0.0366
     20 C          64.9136   84.9287   13.8400 C.ar    1  UNL1        0.0007
     21 C          64.0133   85.8904   14.5576 C.ar    1  UNL1        0.0006
     22 C          62.8219   85.3809   15.3132 C.ar    1  UNL1        0.0007
     23 C          62.5307   83.9100   15.3512 C.ar    1  UNL1        0.0366
     24 C          61.8405   80.9558   14.1329 C.3     1  UNL1        0.2525
     25 O          63.1397   81.4774   14.6717 O.3     1  UNL1       -0.4714
@<TRIPOS>BOND
     1    24    25    1
     2    25    18    1
     3    18    19   ar
     4    19    20   ar
     5    20    21   ar
     6    21    17    1
     7    17     1    1
     8     1     2   ar
     9    10     2    1
    10    10    11    1
    11    11    12    1
    12    12    13    1
    13    13    14    1
    14    14    15    1
    15     2     3   ar
    16     3     4   ar
    17     4     5   ar
    18     5     6   ar
    19     6     7   ar
    20     7     8   ar
    21     8     9   ar
    22    21    22   ar
    23    22    23   ar
    24    23    18   ar
    25     9     1   ar
    26    15    10    1
    27     9     4   ar
    28    12    16    1
@<TRIPOS>MOLECULE
*****
 25 28 0 0 0
SMALL
GASTEIGER

@<TRIPOS>ATOM
      1 N          63.1762   84.0929   12.9854 N.ar    1  UNL1       -0.3100
      2 C          62.9591   84.1405   14.4689 C.ar    1  UNL1        0.1317
      3 N          62.6633   82.7471   14.9389 N.ar    1  UNL1       -0.2300
      4 C          62.6976   81.8384   13.7460 C.ar    1  UNL1        0.0984
      5 C          62.4812   80.3610   13.6032 C.ar    1  UNL1        0.0206
      6 C          62.5817   79.7154   12.2530 C.ar    1  UNL1        0.0016
      7 C          62.8987   80.5472   11.0457 C.ar    1  UNL1        0.0016
      8 C          63.1152   82.0245   11.1885 C.ar    1  UNL1        0.0188
      9 C          63.0146   82.6701   12.5387 C.ar    1  UNL1        0.0789
     10 C          63.0260   85.3663   15.3309 C.3     1  UNL1        0.1199
     11 C          63.7527   86.5855   14.8459 C.3     1  UNL1        0.0871
     12 N          63.8196   87.8112   15.7079 N.3     1  UNL1       -0.2957
     13 C          63.1598   87.8177   17.0549 C.3     1  UNL1        0.0804
     14 C          62.4331   86.5985   17.5400 C.3     1  UNL1        0.0750
     15 S          62.3662   85.3728   16.6779 S.3     1  UNL1       -0.1306
     16 H          63.4015   88.5715   15.1716 H       1  UNL1        0.1233
     17 C          63.4984   85.2627   12.1035 C.3     1  UNL1        0.1339
     18 C          60.6781   86.4328    8.7980 C.ar    1  UNL1        0.1387
     19 C          61.9050   85.6277    8.4872 C.ar    1  UNL1        0.0366
     20 C          62.8450   85.2377    9.5891 C.ar    1  UNL1        0.0007
     21 C          62.5583   85.6528   11.0018 C.ar    1  UNL1        0.0006
     22 C          61.3314   86.4579   11.3124 C.ar    1  UNL1        0.0007
     23 C          60.3913   86.8479   10.2106 C.ar    1  UNL1        0.0366
     24 C          59.3074   88.2522    7.5483 C.3     1  UNL1        0.2525
     25 O          59.7380   86.8228    7.6961 O.3     1  UNL1       -0.4714
@<TRIPOS>BOND
     1    24    25    1
     2    25    18    1
     3    18    19   ar
     4    19    20   ar
     5    20    21   ar
     6    21    17    1
     7    17     1    1
     8     1     2   ar
     9    10     2    1
    10    10    11    1
    11    11    12    1
    12    12    13    1
    13    13    14    1
    14    14    15    1
    15     2     3   ar
    16     3     4   ar
    17     4     5   ar
    18     5     6   ar
    19     6     7   ar
    20     7     8   ar
    21     8     9   ar
    22    21    22   ar
    23    22    23   ar
    24    23    18   ar
    25     9     1   ar
    26    15    10    1
    27     9     4   ar
    28    12    16    1
@<TRIPOS>MOLECULE
*****
 25 28 0 0 0
SMALL
GASTEIGER

@<TRIPOS>ATOM
      1 N          62.9987   85.9292   12.2904 N.ar    1  UNL1       -0.3100
      2 C          63.3864   85.1457   13.5094 C.ar    1  UNL1        0.1317
      3 N          63.9005   86.1107   14.5364 N.ar    1  UNL1       -0.2300
      4 C          63.8305   87.4904   13.9521 C.ar    1  UNL1        0.0984
      5 C          64.2022   88.8344   14.5047 C.ar    1  UNL1        0.0206
      6 C          64.0166   90.0663   13.6693 C.ar    1  UNL1        0.0016
      7 C          63.4592   89.9541   12.2812 C.ar    1  UNL1        0.0016
      8 C          63.0874   88.6101   11.7286 C.ar    1  UNL1        0.0188
      9 C          63.2731   87.3783   12.5640 C.ar    1  UNL1        0.0789
     10 C          63.2790   83.6585   13.6727 C.3     1  UNL1        0.1199
     11 C          62.3069   83.0805   14.6580 C.3     1  UNL1        0.0871
     12 N          62.1994   81.5933   14.8213 N.3     1  UNL1       -0.2957
     13 C          63.0641   80.6841   13.9993 C.3     1  UNL1        0.0804
     14 C          64.0362   81.2621   13.0140 C.3     1  UNL1        0.0750
     15 S          64.1437   82.7494   12.8507 S.3     1  UNL1       -0.1306
     16 H          61.2318   81.3438   14.6167 H       1  UNL1        0.1233
     17 C          62.4354   85.3630   11.0208 C.3     1  UNL1        0.1339
     18 C          59.7282   87.8704    8.4451 C.ar    1  UNL1        0.1387
     19 C          60.6701   86.8901    7.8111 C.ar    1  UNL1        0.0366
     20 C          61.5724   86.0543    8.6697 C.ar    1  UNL1        0.0007
     21 C          61.5330   86.1988   10.1623 C.ar    1  UNL1        0.0006
     22 C          60.5912   87.1791   10.7962 C.ar    1  UNL1        0.0007
     23 C          59.6888   88.0149    9.9376 C.ar    1  UNL1        0.0366
     24 C          59.4011   89.5261    6.4698 C.3     1  UNL1        0.2525
     25 O          58.8259   88.7062    7.5865 O.3     1  UNL1       -0.4714
@<TRIPOS>BOND
     1    24    25    1
     2    25    18    1
     3    18    19   ar
     4    19    20   ar
     5    20    21   ar
     6    21    17    1
     7    17     1    1
     8     1     2   ar
     9    10     2    1
    10    10    11    1
    11    11    12    1
    12    12    13    1
    13    13    14    1
    14    14    15    1
    15     2     3   ar
    16     3     4   ar
    17     4     5   ar
    18     5     6   ar
    19     6     7   ar
    20     7     8   ar
    21     8     9   ar
    22    21    22   ar
    23    22    23   ar
    24    23    18   ar
    25     9     1   ar
    26    15    10    1
    27     9     4   ar
    28    12    16    1
@<TRIPOS>MOLECULE
*****
 25 28 0 0 0
SMALL
GASTEIGER

@<TRIPOS>ATOM
      1 N          61.5261   87.9120   11.0641 N.ar    1  UNL1       -0.3100
      2 C          62.1307   86.5635   11.3206 C.ar    1  UNL1        0.1317
      3 N          61.7776   85.6704   10.1684 N.ar    1  UNL1       -0.2300
      4 C          60.9547   86.4670    9.1997 C.ar    1  UNL1        0.0984
      5 C          60.3269   86.1099    7.8851 C.ar    1  UNL1        0.0206
      6 C          59.5437   87.1381    7.1240 C.ar    1  UNL1        0.0016
      7 C          59.3883   88.5235    7.6776 C.ar    1  UNL1        0.0016
      8 C          60.0161   88.8807    8.9922 C.ar    1  UNL1        0.0188
      9 C          60.7993   87.8525    9.7532 C.ar    1  UNL1        0.0789
     10 C          62.9454   86.1760   12.5190 C.3     1  UNL1        0.1199
     11 C          63.6030   87.2351   13.3532 C.3     1  UNL1        0.0871
     12 N          64.4176   86.8477   14.5516 N.3     1  UNL1       -0.2957
     13 C          64.5747   85.4011   14.9159 C.3     1  UNL1        0.0804
     14 C          63.9171   84.3420   14.0817 C.3     1  UNL1        0.0750
     15 S          63.1025   84.7295   12.8833 S.3     1  UNL1       -0.1306
     16 H          63.9952   87.3099   15.3568 H       1  UNL1        0.1233
     17 C          61.6300   89.1099   11.9609 C.3     1  UNL1        0.1339
     18 C          64.7565   92.2484   11.1701 C.ar    1  UNL1        0.1387
     19 C          63.8760   91.7690   10.0543 C.ar    1  UNL1        0.0366
     20 C          62.8338   90.7229   10.3179 C.ar    1  UNL1        0.0007
     21 C          62.6721   90.1560   11.6973 C.ar    1  UNL1        0.0006
     22 C          63.5526   90.6355   12.8131 C.ar    1  UNL1        0.0007
     23 C          64.5948   91.6816   12.5494 C.ar    1  UNL1        0.0366
     24 C          66.2780   94.1738   12.0233 C.3     1  UNL1        0.2525
     25 O          65.7986   93.2945   10.9065 O.3     1  UNL1       -0.4714
@<TRIPOS>BOND
     1    24    25    1
     2    25    18    1
     3    18    19   ar
     4    19    20   ar
     5    20    21   ar
     6    21    17    1
     7    17     1    1
     8     1     2   ar
     9    10     2    1
    10    10    11    1
    11    11    12    1
    12    12    13    1
    13    13    14    1
    14    14    15    1
    15     2     3   ar
    16     3     4   ar
    17     4     5   ar
    18     5     6   ar
    19     6     7   ar
    20     7     8   ar
    21     8     9   ar
    22    21    22   ar
    23    22    23   ar
    24    23    18   ar
    25     9     1   ar
    26    15    10    1
    27     9     4   ar
    28    12    16    1
@<TRIPOS>MOLECULE
*****
 25 28 0 0 0
SMALL
GASTEIGER

@<TRIPOS>ATOM
      1 N          62.1390   87.1879   11.6175 N.ar    1  UNL1       -0.3100
      2 C          61.7048   86.6356   10.2922 C.ar    1  UNL1        0.1317
      3 N          62.2589   85.2475   10.1647 N.ar    1  UNL1       -0.2300
      4 C          63.0355   84.9420   11.4111 C.ar    1  UNL1        0.0984
      5 C          63.8005   83.7267   11.8444 C.ar    1  UNL1        0.0206
      6 C          64.4915   83.7107   13.1757 C.ar    1  UNL1        0.0016
      7 C          64.4174   84.9100   14.0736 C.ar    1  UNL1        0.0016
      8 C          63.6523   86.1253   13.6403 C.ar    1  UNL1        0.0188
      9 C          62.9614   86.1412   12.3090 C.ar    1  UNL1        0.0789
     10 C          60.8642   87.3464    9.2734 C.3     1  UNL1        0.1199
     11 C          60.8969   88.8436    9.1868 C.3     1  UNL1        0.0871
     12 N          60.0563   89.5544    8.1680 N.3     1  UNL1       -0.2957
     13 C          59.1829   88.7682    7.2358 C.3     1  UNL1        0.0804
     14 C          59.1502   87.2711    7.3224 C.3     1  UNL1        0.0750
     15 S          59.9909   86.5602    8.3412 S.3     1  UNL1       -0.1306
     16 H          60.6947   90.0969    7.5861 H       1  UNL1        0.1233
     17 C          61.8088   88.5482   12.1567 C.3     1  UNL1        0.1339
     18 C          65.0748   91.5854   12.7549 C.ar    1  UNL1        0.1387
     19 C          64.2855   91.5742   11.4793 C.ar    1  UNL1        0.0366
     20 C          63.1969   90.5617   11.2800 C.ar    1  UNL1        0.0007
     21 C          62.8974   89.5605   12.3561 C.ar    1  UNL1        0.0006
     22 C          63.6867   89.5718   13.6316 C.ar    1  UNL1        0.0007
     23 C          64.7754   90.5842   13.8309 C.ar    1  UNL1        0.0366
     24 C          67.4434   92.2001   13.6280 C.3     1  UNL1        0.2525
     25 O          66.1635   92.5978   12.9542 O.3     1  UNL1       -0.4714
@<TRIPOS>BOND
     1    24    25    1
     2    25    18    1
     3    18    19   ar
     4    19    20   ar
     5    20    21   ar
     6    21    17    1
     7    17     1    1
     8     1     2   ar
     9    10     2    1
    10    10    11    1
    11    11    12    1
    12    12    13    1
    13    13    14    1
    14    14    15    1
    15     2     3   ar
    16     3     4   ar
    17     4     5   ar
    18     5     6   ar
    19     6     7   ar
    20     7     8   ar
    21     8     9   ar
    22    21    22   ar
    23    22    23   ar
    24    23    18   ar
    25     9     1   ar
    26    15    10    1
    27     9     4   ar
    28    12    16    1
@<TRIPOS>MOLECULE
*****
 25 28 0 0 0
SMALL
GASTEIGER

@<TRIPOS>ATOM
      1 N          63.3581   83.9744   11.9608 N.ar    1  UNL1       -0.3100
      2 C          63.2611   84.7286   13.2538 C.ar    1  UNL1        0.1317
      3 N          62.8590   83.7601   14.3263 N.ar    1  UNL1       -0.2300
      4 C          62.7075   82.4073   13.6962 C.ar    1  UNL1        0.0984
      5 C          62.3286   81.0720   14.2647 C.ar    1  UNL1        0.0206
      6 C          62.2581   79.8692   13.3714 C.ar    1  UNL1        0.0016
      7 C          62.5666   80.0016   11.9094 C.ar    1  UNL1        0.0016
      8 C          62.9455   81.3369   11.3408 C.ar    1  UNL1        0.0188
      9 C          63.0160   82.5398   12.2342 C.ar    1  UNL1        0.0789
     10 C          63.5206   86.1941   13.4413 C.3     1  UNL1        0.1199
     11 C          63.0482   87.1772   12.4116 C.3     1  UNL1        0.0871
     12 N          63.3077   88.6426   12.5991 N.3     1  UNL1       -0.2957
     13 C          64.0396   89.1249   13.8163 C.3     1  UNL1        0.0804
     14 C          64.5120   88.1418   14.8460 C.3     1  UNL1        0.0750
     15 S          64.2525   86.6764   14.6585 S.3     1  UNL1       -0.1306
     16 H          62.3984   89.1049   12.5998 H       1  UNL1        0.1233
     17 C          63.7317   84.5532   10.6284 C.3     1  UNL1        0.1339
     18 C          60.5400   86.1926    7.9126 C.ar    1  UNL1        0.1387
     19 C          60.4400   86.3957    9.3954 C.ar    1  UNL1        0.0366
     20 C          61.5039   85.8492   10.3006 C.ar    1  UNL1        0.0007
     21 C          62.6679   85.0996    9.7231 C.ar    1  UNL1        0.0006
     22 C          62.7678   84.8966    8.2403 C.ar    1  UNL1        0.0007
     23 C          61.7039   85.4431    7.3351 C.ar    1  UNL1        0.0366
     24 C          58.9096   88.1057    7.2554 C.3     1  UNL1        0.2525
     25 O          59.4761   86.7391    7.0073 O.3     1  UNL1       -0.4714
@<TRIPOS>BOND
     1    24    25    1
     2    25    18    1
     3    18    19   ar
     4    19    20   ar
     5    20    21   ar
     6    21    17    1
     7    17     1    1
     8     1     2   ar
     9    10     2    1
    10    10    11    1
    11    11    12    1
    12    12    13    1
    13    13    14    1
    14    14    15    1
    15     2     3   ar
    16     3     4   ar
    17     4     5   ar
    18     5     6   ar
    19     6     7   ar
    20     7     8   ar
    21     8     9   ar
    22    21    22   ar
    23    22    23   ar
    24    23    18   ar
    25     9     1   ar
    26    15    10    1
    27     9     4   ar
    28    12    16    1
