@<TRIPOS>MOLECULE
*****
 32 37 0 0 0
SMALL
GASTEIGER

@<TRIPOS>ATOM
      1 N          60.4285   92.8208    1.8280 N.pl3   1  UNL1       -0.3075
      2 C          60.2954   94.3148    1.8349 C.3     1  UNL1        0.0908
      3 C          60.4714   95.0894    0.5625 C.3     1  UNL1        0.0237
      4 C          60.7804   94.3699   -0.7168 C.3     1  UNL1        0.0285
      5 C          60.9135   92.8758   -0.7238 C.3     1  UNL1        0.0237
      6 C          60.7376   92.1012    0.5486 C.3     1  UNL1        0.0908
      7 C          60.9564   95.1445   -1.9893 C.3     1  UNL1        0.1117
      8 C          62.2643   95.5608   -2.5944 C.ar    1  UNL1        0.0272
      9 C          63.6840   95.3526   -2.1571 C.ar    1  UNL1        0.1379
     10 F          63.9767   94.6011   -0.8925 F       1  UNL1       -0.2044
     11 C          64.8110   95.8961   -2.9846 C.ar    1  UNL1        0.0294
     12 C          64.5181   96.6476   -4.2493 C.ar    1  UNL1        0.0023
     13 C          63.0985   96.8557   -4.6866 C.ar    1  UNL1        0.0014
     14 C          61.9715   96.3124   -3.8591 C.ar    1  UNL1        0.0173
     15 C          60.4827   96.3605   -4.0357 C.ar    1  UNL1        0.0804
     16 C          59.3817   96.8548   -4.9264 C.ar    1  UNL1        0.1178
     17 N          58.0739   96.4384   -4.3213 N.ar    1  UNL1       -0.2223
     18 C          58.3666   95.6869   -3.0566 C.ar    1  UNL1        0.1788
     19 N          59.8554   95.6387   -2.8800 N.ar    1  UNL1       -0.3069
     20 C          57.3438   90.9517    5.5685 C.3     1  UNL1        0.0311
     21 C          58.7102   91.1117    4.9707 C.ar    1  UNL1       -0.0205
     22 C          58.8861   91.8862    3.6983 C.ar    1  UNL1        0.0103
     23 C          60.2526   92.0462    3.1005 C.ar    1  UNL1        0.0475
     24 C          61.4430   91.4316    3.7751 C.ar    1  UNL1        0.0145
     25 C          61.2670   90.6570    5.0475 C.ar    1  UNL1        0.0011
     26 C          59.9007   90.4971    5.6453 C.ar    1  UNL1       -0.0008
     27 C          59.7247   89.7225    6.9178 C.ar    1  UNL1        0.0393
     28 C          59.0137   88.4094    7.0594 C.ar    1  UNL1        0.1216
     29 N          59.0785   88.0004    8.5011 N.ar    1  UNL1       -0.1676
     30 N          59.8295   89.0608    9.2504 N.ar    1  UNL1       -0.2473
     31 C          60.1286   89.0574   10.7204 C.3     1  UNL1        0.1538
     32 C          60.2290   90.1252    8.2719 C.ar    1  UNL1        0.0967
@<TRIPOS>BOND
     1    20    21    1
     2    21    22   ar
     3    22    23   ar
     4    23     1    1
     5     1     2    1
     6     2     3    1
     7     3     4    1
     8     4     7    1
     9     7     8    1
    10     8     9   ar
    11     9    10    1
    12     9    11   ar
    13    11    12   ar
    14    12    13   ar
    15    13    14   ar
    16    14    15    1
    17    15    16   ar
    18    16    17   ar
    19    17    18   ar
    20    18    19   ar
    21     4     5    1
    22     5     6    1
    23    23    24   ar
    24    24    25   ar
    25    25    26   ar
    26    26    27    1
    27    27    28   ar
    28    28    29   ar
    29    29    30   ar
    30    30    31    1
    31    30    32   ar
    32    26    21   ar
    33    32    27   ar
    34     6     1    1
    35    19     7    1
    36    14     8   ar
    37    19    15   ar
@<TRIPOS>MOLECULE
*****
 32 37 0 0 0
SMALL
GASTEIGER

@<TRIPOS>ATOM
      1 N          63.8880   87.2211   13.7610 N.pl3   1  UNL1       -0.3075
      2 C          63.4393   88.1615   12.6820 C.3     1  UNL1        0.0908
      3 C          63.9812   89.5593   12.6322 C.3     1  UNL1        0.0237
      4 C          64.9717   90.0168   13.6615 C.3     1  UNL1        0.0285
      5 C          65.4205   89.0764   14.7406 C.3     1  UNL1        0.0237
      6 C          64.8787   87.6786   14.7904 C.3     1  UNL1        0.0908
      7 C          65.5136   91.4146   13.6117 C.3     1  UNL1        0.1117
      8 C          65.4243   92.3538   12.4455 C.ar    1  UNL1        0.0272
      9 C          64.8187   92.2053   11.0813 C.ar    1  UNL1        0.1379
     10 F          64.1477   90.9209   10.6943 F       1  UNL1       -0.2044
     11 C          64.8842   93.3415   10.1039 C.ar    1  UNL1        0.0294
     12 C          65.5552   94.6259   10.4909 C.ar    1  UNL1        0.0023
     13 C          66.1609   94.7744   11.8552 C.ar    1  UNL1        0.0014
     14 C          66.0954   93.6383   12.8325 C.ar    1  UNL1        0.0173
     15 C          66.5994   93.4930   14.2378 C.ar    1  UNL1        0.0804
     16 C          67.3257   94.1971   15.3454 C.ar    1  UNL1        0.1178
     17 N          67.4149   93.2579   16.5116 N.ar    1  UNL1       -0.2223
     18 C          66.7438   91.9733   16.1247 C.ar    1  UNL1        0.1788
     19 N          66.2398   92.1187   14.7194 N.ar    1  UNL1       -0.3069
     20 C          62.5922   82.8084   11.3426 C.3     1  UNL1        0.0311
     21 C          62.6982   83.6170   12.6015 C.ar    1  UNL1       -0.0205
     22 C          63.2401   85.0148   12.5517 C.ar    1  UNL1        0.0103
     23 C          63.3462   85.8233   13.8108 C.ar    1  UNL1        0.0475
     24 C          62.9104   85.2340   15.1195 C.ar    1  UNL1        0.0145
     25 C          62.3685   83.8362   15.1693 C.ar    1  UNL1        0.0011
     26 C          62.2625   83.0277   13.9103 C.ar    1  UNL1       -0.0008
     27 C          61.7206   81.6298   13.9601 C.ar    1  UNL1        0.0393
     28 C          62.5105   80.3705   13.7603 C.ar    1  UNL1        0.1216
     29 N          61.5718   79.2083   13.8951 N.ar    1  UNL1       -0.1676
     30 N          60.2018   79.7494   14.1782 N.ar    1  UNL1       -0.2473
     31 C          58.9581   78.9366   14.3850 C.3     1  UNL1        0.1538
     32 C          60.2937   81.2461   14.2184 C.ar    1  UNL1        0.0967
@<TRIPOS>BOND
     1    20    21    1
     2    21    22   ar
     3    22    23   ar
     4    23     1    1
     5     1     2    1
     6     2     3    1
     7     3     4    1
     8     4     7    1
     9     7     8    1
    10     8     9   ar
    11     9    10    1
    12     9    11   ar
    13    11    12   ar
    14    12    13   ar
    15    13    14   ar
    16    14    15    1
    17    15    16   ar
    18    16    17   ar
    19    17    18   ar
    20    18    19   ar
    21     4     5    1
    22     5     6    1
    23    23    24   ar
    24    24    25   ar
    25    25    26   ar
    26    26    27    1
    27    27    28   ar
    28    28    29   ar
    29    29    30   ar
    30    30    31    1
    31    30    32   ar
    32    26    21   ar
    33    32    27   ar
    34     6     1    1
    35    19     7    1
    36    14     8   ar
    37    19    15   ar
@<TRIPOS>MOLECULE
*****
 32 37 0 0 0
SMALL
GASTEIGER

@<TRIPOS>ATOM
      1 N          60.8172   87.5159    8.7385 N.pl3   1  UNL1       -0.3075
      2 C          60.8751   88.9940    8.9874 C.3     1  UNL1        0.0908
      3 C          60.2844   89.9462    7.9902 C.3     1  UNL1        0.0237
      4 C          59.6358   89.4203    6.7441 C.3     1  UNL1        0.0285
      5 C          59.5778   87.9422    6.4952 C.3     1  UNL1        0.0237
      6 C          60.1686   86.9900    7.4923 C.3     1  UNL1        0.0908
      7 C          59.0450   90.3726    5.7470 C.3     1  UNL1        0.1117
      8 C          59.8103   91.1967    4.7543 C.ar    1  UNL1        0.0272
      9 C          61.2781   91.3184    4.4702 C.ar    1  UNL1        0.1379
     10 F          62.2647   90.5139    5.2632 F       1  UNL1       -0.2044
     11 C          61.7591   92.2448    3.3929 C.ar    1  UNL1        0.0294
     12 C          60.7724   93.0493    2.5999 C.ar    1  UNL1        0.0023
     13 C          59.3046   92.9276    2.8840 C.ar    1  UNL1        0.0014
     14 C          58.8235   92.0013    3.9612 C.ar    1  UNL1        0.0173
     15 C          57.4485   91.6745    4.4637 C.ar    1  UNL1        0.0804
     16 C          55.9888   91.9697    4.2841 C.ar    1  UNL1        0.1178
     17 N          55.2237   91.1456    5.2767 N.ar    1  UNL1       -0.2223
     18 C          56.2104   90.3410    6.0698 C.ar    1  UNL1        0.1788
     19 N          57.5854   90.6678    5.5673 N.ar    1  UNL1       -0.3069
     20 C          63.8822   83.4619    9.8207 C.3     1  UNL1        0.0311
     21 C          62.9404   84.5367   10.2767 C.ar    1  UNL1       -0.0205
     22 C          62.3497   85.4889    9.2795 C.ar    1  UNL1        0.0103
     23 C          61.4079   86.5637    9.7356 C.ar    1  UNL1        0.0475
     24 C          61.0569   86.6863   11.1888 C.ar    1  UNL1        0.0145
     25 C          61.6477   85.7340   12.1859 C.ar    1  UNL1        0.0011
     26 C          62.5894   84.6593   11.7299 C.ar    1  UNL1       -0.0008
     27 C          63.1801   83.7071   12.7271 C.ar    1  UNL1        0.0393
     28 C          64.1321   84.0638   13.8299 C.ar    1  UNL1        0.1216
     29 N          64.4629   82.8082   14.5809 N.ar    1  UNL1       -0.1676
     30 N          63.7153   81.6755   13.9422 N.ar    1  UNL1       -0.2473
     31 C          63.7538   80.2392   14.3735 C.3     1  UNL1        0.1538
     32 C          62.9224   82.2310   12.7964 C.ar    1  UNL1        0.0967
@<TRIPOS>BOND
     1    20    21    1
     2    21    22   ar
     3    22    23   ar
     4    23     1    1
     5     1     2    1
     6     2     3    1
     7     3     4    1
     8     4     7    1
     9     7     8    1
    10     8     9   ar
    11     9    10    1
    12     9    11   ar
    13    11    12   ar
    14    12    13   ar
    15    13    14   ar
    16    14    15    1
    17    15    16   ar
    18    16    17   ar
    19    17    18   ar
    20    18    19   ar
    21     4     5    1
    22     5     6    1
    23    23    24   ar
    24    24    25   ar
    25    25    26   ar
    26    26    27    1
    27    27    28   ar
    28    28    29   ar
    29    29    30   ar
    30    30    31    1
    31    30    32   ar
    32    26    21   ar
    33    32    27   ar
    34     6     1    1
    35    19     7    1
    36    14     8   ar
    37    19    15   ar
