@<TRIPOS>MOLECULE
*****
 38 42 0 0 0
SMALL
GASTEIGER

@<TRIPOS>ATOM
      1 C          63.3570   85.5337   14.0525 C.3     1  UNL1        0.0612
      2 C          63.4680   86.4351   12.8586 C.3     1  UNL1        0.0375
      3 C          63.7382   87.8987   13.0464 C.3     1  UNL1        0.0949
      4 N          63.8974   88.4608   14.4279 N.am    1  UNL1       -0.2773
      5 C          64.1675   89.9242   14.6156 C.2     1  UNL1        0.2553
      6 O          64.3267   90.4864   15.9971 O.2     1  UNL1       -0.2720
      7 C          63.7864   87.5594   15.6218 C.3     1  UNL1        0.0949
      8 C          63.5162   86.0959   15.4340 C.3     1  UNL1        0.0375
      9 C          62.8947   79.5006   10.5658 C.ar    1  UNL1        0.1384
     10 C          63.3384   80.7177    9.8096 C.ar    1  UNL1        0.0366
     11 C          63.4537   82.0373   10.5134 C.ar    1  UNL1       -0.0001
     12 C          63.1252   82.1398   11.9734 C.ar    1  UNL1       -0.0099
     13 C          62.6815   80.9228   12.7295 C.ar    1  UNL1       -0.0218
     14 C          62.5662   79.6032   12.0258 C.ar    1  UNL1        0.0324
     15 C          62.3085   80.8059   14.1778 C.3     1  UNL1        0.0276
     16 C          62.2872   81.8773   15.2275 C.3     1  UNL1        0.0220
     17 C          62.6336   83.3300   15.0881 C.3     1  UNL1        0.0727
     18 N          63.0868   84.0703   13.8648 N.3     1  UNL1       -0.2702
     19 C          63.3056   83.5406   12.4786 C.3     1  UNL1        0.0988
     20 C          63.0751   76.9091   10.6000 C.3     1  UNL1        0.2525
     21 O          62.7795   78.1810    9.8619 O.3     1  UNL1       -0.4714
     22 C          64.2785   90.8256   13.4217 C.3     1  UNL1        0.2042
     23 F          62.8604   90.3617   13.2670 F       1  UNL1       -0.2306
     24 C          65.6580   90.9764   13.9911 C.3     1  UNL1        0.0590
     25 C          66.6560   91.8674   13.3129 C.3     1  UNL1        0.0756
     26 N          66.2745   92.6077   12.0652 N.3     1  UNL1       -0.2688
     27 C          64.8950   92.4569   11.4960 C.3     1  UNL1        0.0756
     28 C          63.8970   91.5658   12.1741 C.3     1  UNL1        0.0590
     29 C          67.2725   93.4988   11.3871 C.3     1  UNL1        0.0993
     30 C          66.8019   94.6176   10.5058 C.ar    1  UNL1       -0.0018
     31 C          65.4811   95.2770   10.7717 C.ar    1  UNL1        0.0179
     32 C          65.0105   96.3958    9.8903 C.ar    1  UNL1        0.1000
     33 N          65.8607   96.8552    8.7431 N.ar    1  UNL1       -0.2296
     34 C          67.1814   96.1958    8.4771 C.ar    1  UNL1        0.1251
     35 N          68.0316   96.6552    7.3299 N.pl3   1  UNL1       -0.3426
     36 C          67.6520   95.0770    9.3584 C.ar    1  UNL1        0.0310
     37 H          67.7227   97.3895    6.7515 H       1  UNL1        0.1437
     38 H          68.8984   96.2224    7.1554 H       1  UNL1        0.1437
@<TRIPOS>BOND
     1    20    21    1
     2    21     9    1
     3     9    10   ar
     4    10    11   ar
     5    11    12   ar
     6    12    13   ar
     7    13    14   ar
     8    13    15    1
     9    15    16    1
    10    16    17    1
    11    17    18    1
    12    18     1    1
    13     1     2    1
    14     2     3    1
    15     3     4    1
    16     4     5   am
    17     5     6    2
    18     5    22    1
    19    22    23    1
    20    22    24    1
    21    24    25    1
    22    25    26    1
    23    26    29    1
    24    29    30    1
    25    30    31   ar
    26    31    32   ar
    27    32    33   ar
    28    33    34   ar
    29    34    35    1
    30    34    36   ar
    31    26    27    1
    32    27    28    1
    33     4     7    1
    34     7     8    1
    35    18    19    1
    36    14     9   ar
    37     8     1    1
    38    19    12    1
    39    28    22    1
    40    36    30   ar
    41    35    37    1
    42    35    38    1
@<TRIPOS>MOLECULE
*****
 38 42 0 0 0
SMALL
GASTEIGER

@<TRIPOS>ATOM
      1 C          60.2740   92.0921    3.7493 C.3     1  UNL1        0.0612
      2 C          61.2539   91.2105    4.4655 C.3     1  UNL1        0.0375
      3 C          60.7717   90.2443    5.5067 C.3     1  UNL1        0.0949
      4 N          59.3098   90.1597    5.8318 N.am    1  UNL1       -0.2773
      5 C          58.8278   89.1935    6.8730 C.2     1  UNL1        0.2553
      6 O          57.3659   89.1089    7.1981 O.2     1  UNL1       -0.2720
      7 C          58.3300   91.0412    5.1157 C.3     1  UNL1        0.0949
      8 C          58.8121   92.0074    4.0744 C.3     1  UNL1        0.0375
      9 C          64.9259   95.2635   -0.3825 C.ar    1  UNL1        0.1384
     10 C          65.4210   94.1871    0.5374 C.ar    1  UNL1        0.0366
     11 C          64.4613   93.4758    1.4447 C.ar    1  UNL1       -0.0001
     12 C          63.0064   93.8409    1.4320 C.ar    1  UNL1       -0.0099
     13 C          62.5114   94.9172    0.5121 C.ar    1  UNL1       -0.0218
     14 C          63.4710   95.6285   -0.3952 C.ar    1  UNL1        0.0324
     15 C          61.1127   95.4321    0.3423 C.3     1  UNL1        0.0276
     16 C          59.8638   94.9977    1.0505 C.3     1  UNL1        0.0220
     17 C          59.7051   93.9413    2.1034 C.3     1  UNL1        0.0727
     18 N          60.7560   93.0582    2.7081 N.3     1  UNL1       -0.2702
     19 C          62.2253   93.0135    2.4093 C.3     1  UNL1        0.0988
     20 C          65.4001   96.5653   -2.5802 C.3     1  UNL1        0.2525
     21 O          65.8856   95.9747   -1.2897 O.3     1  UNL1       -0.4714
     22 C          59.8077   88.3120    7.5892 C.3     1  UNL1        0.2042
     23 F          59.5253   87.4632    6.3851 F       1  UNL1       -0.2306
     24 C          59.7497   89.4670    8.5445 C.3     1  UNL1        0.0590
     25 C          60.5736   89.4456    9.7978 C.3     1  UNL1        0.0756
     26 N          61.4554   88.2692   10.0958 N.3     1  UNL1       -0.2688
     27 C          61.5132   87.1143    9.1404 C.3     1  UNL1        0.0756
     28 C          60.6894   87.1357    7.8871 C.3     1  UNL1        0.0590
     29 C          62.2792   88.2479   11.3491 C.3     1  UNL1        0.0993
     30 C          63.0239   89.4773   11.7781 C.ar    1  UNL1       -0.0018
     31 C          63.3794   89.6732   13.2222 C.ar    1  UNL1        0.0179
     32 C          64.1240   90.9026   13.6511 C.ar    1  UNL1        0.1000
     33 N          64.5132   91.9361   12.6361 N.ar    1  UNL1       -0.2296
     34 C          64.1577   91.7403   11.1920 C.ar    1  UNL1        0.1251
     35 N          64.5469   92.7738   10.1769 N.pl3   1  UNL1       -0.3426
     36 C          63.4131   90.5109   10.7630 C.ar    1  UNL1        0.0310
     37 H          65.0356   93.5807   10.4585 H       1  UNL1        0.1437
     38 H          64.3135   92.6452    9.2292 H       1  UNL1        0.1437
@<TRIPOS>BOND
     1    20    21    1
     2    21     9    1
     3     9    10   ar
     4    10    11   ar
     5    11    12   ar
     6    12    13   ar
     7    13    14   ar
     8    13    15    1
     9    15    16    1
    10    16    17    1
    11    17    18    1
    12    18     1    1
    13     1     2    1
    14     2     3    1
    15     3     4    1
    16     4     5   am
    17     5     6    2
    18     5    22    1
    19    22    23    1
    20    22    24    1
    21    24    25    1
    22    25    26    1
    23    26    29    1
    24    29    30    1
    25    30    31   ar
    26    31    32   ar
    27    32    33   ar
    28    33    34   ar
    29    34    35    1
    30    34    36   ar
    31    26    27    1
    32    27    28    1
    33     4     7    1
    34     7     8    1
    35    18    19    1
    36    14     9   ar
    37     8     1    1
    38    19    12    1
    39    28    22    1
    40    36    30   ar
    41    35    37    1
    42    35    38    1
@<TRIPOS>MOLECULE
*****
 38 42 0 0 0
SMALL
GASTEIGER

@<TRIPOS>ATOM
      1 C          61.5056   92.3241    2.9611 C.3     1  UNL1        0.0612
      2 C          62.0698   91.2214    3.8070 C.3     1  UNL1        0.0375
      3 C          61.2063   90.5436    4.8294 C.3     1  UNL1        0.0949
      4 N          59.7786   90.9686    5.0058 N.am    1  UNL1       -0.2773
      5 C          58.9152   90.2908    6.0280 C.2     1  UNL1        0.2553
      6 O          57.4875   90.7158    6.2044 O.2     1  UNL1       -0.2720
      7 C          59.2144   92.0713    4.1598 C.3     1  UNL1        0.0949
      8 C          60.0779   92.7491    3.1375 C.3     1  UNL1        0.0375
      9 C          63.3107   94.6496   -3.3717 C.ar    1  UNL1        0.1384
     10 C          62.0027   93.9284   -3.2338 C.ar    1  UNL1        0.0366
     11 C          61.5698   93.4096   -1.8946 C.ar    1  UNL1       -0.0001
     12 C          62.4449   93.6120   -0.6932 C.ar    1  UNL1       -0.0099
     13 C          63.7528   94.3332   -0.8311 C.ar    1  UNL1       -0.0218
     14 C          64.1858   94.8520   -2.1703 C.ar    1  UNL1        0.0324
     15 C          64.7680   94.6401    0.2297 C.3     1  UNL1        0.0276
     16 C          64.7259   94.3014    1.6904 C.3     1  UNL1        0.0220
     17 C          63.6582   93.5724    2.4510 C.3     1  UNL1        0.0727
     18 N          62.3690   93.0019    1.9388 N.3     1  UNL1       -0.2702
     19 C          61.8290   93.0195    0.5395 C.3     1  UNL1        0.0988
     20 C          63.2702   94.4948   -5.9648 C.3     1  UNL1        0.2525
     21 O          63.7435   95.1684   -4.7109 O.3     1  UNL1       -0.4714
     22 C          59.4795   89.1880    6.8740 C.3     1  UNL1        0.2042
     23 F          59.0735   88.4043    5.6611 F       1  UNL1       -0.2306
     24 C          59.6894   90.3548    7.7930 C.3     1  UNL1        0.0590
     25 C          60.3226   90.1466    9.1367 C.3     1  UNL1        0.0756
     26 N          60.7459   88.7716    9.5615 N.3     1  UNL1       -0.2688
     27 C          60.5359   87.6049    8.6424 C.3     1  UNL1        0.0756
     28 C          59.9027   87.8131    7.2987 C.3     1  UNL1        0.0590
     29 C          61.3791   88.5634   10.9052 C.3     1  UNL1        0.0993
     30 C          62.3092   89.5989   11.4644 C.ar    1  UNL1       -0.0018
     31 C          63.1046   90.4710   10.5387 C.ar    1  UNL1        0.0179
     32 C          64.0347   91.5064   11.0980 C.ar    1  UNL1        0.1000
     33 N          64.1695   91.6697   12.5829 N.ar    1  UNL1       -0.2296
     34 C          63.3742   90.7977   13.5087 C.ar    1  UNL1        0.1251
     35 N          63.5089   90.9611   14.9936 N.pl3   1  UNL1       -0.3426
     36 C          62.4441   89.7623   12.9494 C.ar    1  UNL1        0.0310
     37 H          64.1194   91.6406   15.3607 H       1  UNL1        0.1437
     38 H          62.9869   90.3887   15.6012 H       1  UNL1        0.1437
@<TRIPOS>BOND
     1    20    21    1
     2    21     9    1
     3     9    10   ar
     4    10    11   ar
     5    11    12   ar
     6    12    13   ar
     7    13    14   ar
     8    13    15    1
     9    15    16    1
    10    16    17    1
    11    17    18    1
    12    18     1    1
    13     1     2    1
    14     2     3    1
    15     3     4    1
    16     4     5   am
    17     5     6    2
    18     5    22    1
    19    22    23    1
    20    22    24    1
    21    24    25    1
    22    25    26    1
    23    26    29    1
    24    29    30    1
    25    30    31   ar
    26    31    32   ar
    27    32    33   ar
    28    33    34   ar
    29    34    35    1
    30    34    36   ar
    31    26    27    1
    32    27    28    1
    33     4     7    1
    34     7     8    1
    35    18    19    1
    36    14     9   ar
    37     8     1    1
    38    19    12    1
    39    28    22    1
    40    36    30   ar
    41    35    37    1
    42    35    38    1
@<TRIPOS>MOLECULE
*****
 38 42 0 0 0
SMALL
GASTEIGER

@<TRIPOS>ATOM
      1 C          60.2285   91.9937    3.6618 C.3     1  UNL1        0.0612
      2 C          61.2181   91.1131    4.3657 C.3     1  UNL1        0.0375
      3 C          60.7617   90.2032    5.4674 C.3     1  UNL1        0.0949
      4 N          59.3157   90.1737    5.8652 N.am    1  UNL1       -0.2773
      5 C          58.8593   89.2638    6.9669 C.2     1  UNL1        0.2553
      6 O          57.4134   89.2344    7.3647 O.2     1  UNL1       -0.2720
      7 C          58.3261   91.0543    5.1614 C.3     1  UNL1        0.0949
      8 C          58.7825   91.9643    4.0596 C.3     1  UNL1        0.0375
      9 C          59.5796   95.9875   -2.0301 C.ar    1  UNL1        0.1384
     10 C          58.3492   95.3124   -1.5007 C.ar    1  UNL1        0.0366
     11 C          58.4362   94.4441   -0.2806 C.ar    1  UNL1       -0.0001
     12 C          59.7538   94.2509    0.4100 C.ar    1  UNL1       -0.0099
     13 C          60.9841   94.9260   -0.1195 C.ar    1  UNL1       -0.0218
     14 C          60.8971   95.7943   -1.3395 C.ar    1  UNL1        0.0324
     15 C          62.3853   94.8678    0.4129 C.3     1  UNL1        0.0276
     16 C          62.9020   94.1201    1.6062 C.3     1  UNL1        0.0220
     17 C          62.1453   93.2460    2.5617 C.3     1  UNL1        0.0727
     18 N          60.6849   92.9036    2.5601 N.3     1  UNL1       -0.2702
     19 C          59.6205   93.3508    1.6025 C.3     1  UNL1        0.0988
     20 C          59.3151   96.2327   -4.6030 C.3     1  UNL1        0.2525
     21 O          59.4925   96.8558   -3.2501 O.3     1  UNL1       -0.4714
     22 C          59.8489   88.3833    7.6708 C.3     1  UNL1        0.2042
     23 F          59.5542   87.5353    6.4691 F       1  UNL1       -0.2306
     24 C          59.7999   89.5372    8.6280 C.3     1  UNL1        0.0590
     25 C          60.6382   89.5159    9.8717 C.3     1  UNL1        0.0756
     26 N          61.5255   88.3409   10.1582 N.3     1  UNL1       -0.2688
     27 C          61.5744   87.1871    9.2010 C.3     1  UNL1        0.0756
     28 C          60.7362   87.2083    7.9573 C.3     1  UNL1        0.0590
     29 C          62.3637   88.3197   11.4020 C.3     1  UNL1        0.0993
     30 C          63.0998   89.5541   11.8313 C.ar    1  UNL1       -0.0018
     31 C          63.4238   89.7684   13.2801 C.ar    1  UNL1        0.0179
     32 C          64.1600   91.0028   13.7095 C.ar    1  UNL1        0.1000
     33 N          64.5721   92.0229   12.6899 N.ar    1  UNL1       -0.2296
     34 C          64.2482   91.8087   11.2411 C.ar    1  UNL1        0.1251
     35 N          64.6603   92.8288   10.2216 N.pl3   1  UNL1       -0.3426
     36 C          63.5120   90.5743   10.8118 C.ar    1  UNL1        0.0310
     37 H          65.1435   93.6390   10.5033 H       1  UNL1        0.1437
     38 H          64.4477   92.6881    9.2707 H       1  UNL1        0.1437
@<TRIPOS>BOND
     1    20    21    1
     2    21     9    1
     3     9    10   ar
     4    10    11   ar
     5    11    12   ar
     6    12    13   ar
     7    13    14   ar
     8    13    15    1
     9    15    16    1
    10    16    17    1
    11    17    18    1
    12    18     1    1
    13     1     2    1
    14     2     3    1
    15     3     4    1
    16     4     5   am
    17     5     6    2
    18     5    22    1
    19    22    23    1
    20    22    24    1
    21    24    25    1
    22    25    26    1
    23    26    29    1
    24    29    30    1
    25    30    31   ar
    26    31    32   ar
    27    32    33   ar
    28    33    34   ar
    29    34    35    1
    30    34    36   ar
    31    26    27    1
    32    27    28    1
    33     4     7    1
    34     7     8    1
    35    18    19    1
    36    14     9   ar
    37     8     1    1
    38    19    12    1
    39    28    22    1
    40    36    30   ar
    41    35    37    1
    42    35    38    1
@<TRIPOS>MOLECULE
*****
 38 42 0 0 0
SMALL
GASTEIGER

@<TRIPOS>ATOM
      1 C          62.3961   94.1081   -1.4466 C.3     1  UNL1        0.0612
      2 C          62.6281   92.8736   -0.6268 C.3     1  UNL1        0.0375
      3 C          62.0419   92.7664    0.7499 C.3     1  UNL1        0.0949
      4 N          61.2237   93.8936    1.3066 N.am    1  UNL1       -0.2773
      5 C          60.6376   93.7863    2.6831 C.2     1  UNL1        0.2553
      6 O          59.8194   94.9135    3.2398 O.2     1  UNL1       -0.2720
      7 C          60.9917   95.1281    0.4867 C.3     1  UNL1        0.0949
      8 C          61.5779   95.2354   -0.8899 C.3     1  UNL1        0.0375
      9 C          66.8152   96.3423   -6.3710 C.ar    1  UNL1        0.1384
     10 C          67.0012   96.8557   -4.9739 C.ar    1  UNL1        0.0366
     11 C          66.0780   96.4059   -3.8805 C.ar    1  UNL1       -0.0001
     12 C          64.9689   95.4427   -4.1843 C.ar    1  UNL1       -0.0099
     13 C          64.7830   94.9294   -5.5813 C.ar    1  UNL1       -0.0218
     14 C          65.7061   95.3792   -6.6747 C.ar    1  UNL1        0.0324
     15 C          63.7497   93.9715   -6.0960 C.3     1  UNL1        0.0276
     16 C          62.6471   93.2904   -5.3406 C.3     1  UNL1        0.0220
     17 C          62.3057   93.3990   -3.8841 C.3     1  UNL1        0.0727
     18 N          62.9823   94.2154   -2.8231 N.3     1  UNL1       -0.2702
     19 C          64.1675   95.1250   -2.9567 C.3     1  UNL1        0.0988
     20 C          69.1658   96.3314   -7.4775 C.3     1  UNL1        0.2525
     21 O          67.7384   96.7922   -7.4644 O.3     1  UNL1       -0.4714
     22 C          60.8696   92.5518    3.5029 C.3     1  UNL1        0.2042
     23 F          62.2335   92.7266    2.9036 F       1  UNL1       -0.2306
     24 C          59.4251   92.8057    3.8175 C.3     1  UNL1        0.0590
     25 C          58.6864   91.8859    4.7438 C.3     1  UNL1        0.0756
     26 N          59.3920   90.7120    5.3556 N.3     1  UNL1       -0.2688
     27 C          60.8365   90.4582    5.0409 C.3     1  UNL1        0.0756
     28 C          61.5753   91.3780    4.1146 C.3     1  UNL1        0.0590
     29 C          58.6532   89.7922    6.2819 C.3     1  UNL1        0.0993
     30 C          59.4137   88.9130    7.2297 C.ar    1  UNL1       -0.0018
     31 C          59.4371   87.4278    7.0203 C.ar    1  UNL1        0.0179
     32 C          60.1976   86.5486    7.9682 C.ar    1  UNL1        0.1000
     33 N          60.9347   87.1544    9.1255 N.ar    1  UNL1       -0.2296
     34 C          60.9115   88.6395    9.3350 C.ar    1  UNL1        0.1251
     35 N          61.6486   89.2454   10.4923 N.pl3   1  UNL1       -0.3426
     36 C          60.1510   89.5188    8.3871 C.ar    1  UNL1        0.0310
     37 H          62.1478   88.6684   11.1145 H       1  UNL1        0.1437
     38 H          61.6333   90.2202   10.6298 H       1  UNL1        0.1437
@<TRIPOS>BOND
     1    20    21    1
     2    21     9    1
     3     9    10   ar
     4    10    11   ar
     5    11    12   ar
     6    12    13   ar
     7    13    14   ar
     8    13    15    1
     9    15    16    1
    10    16    17    1
    11    17    18    1
    12    18     1    1
    13     1     2    1
    14     2     3    1
    15     3     4    1
    16     4     5   am
    17     5     6    2
    18     5    22    1
    19    22    23    1
    20    22    24    1
    21    24    25    1
    22    25    26    1
    23    26    29    1
    24    29    30    1
    25    30    31   ar
    26    31    32   ar
    27    32    33   ar
    28    33    34   ar
    29    34    35    1
    30    34    36   ar
    31    26    27    1
    32    27    28    1
    33     4     7    1
    34     7     8    1
    35    18    19    1
    36    14     9   ar
    37     8     1    1
    38    19    12    1
    39    28    22    1
    40    36    30   ar
    41    35    37    1
    42    35    38    1
@<TRIPOS>MOLECULE
*****
 38 42 0 0 0
SMALL
GASTEIGER

@<TRIPOS>ATOM
      1 C          59.5273   91.8724    4.1364 C.3     1  UNL1        0.0612
      2 C          60.7384   91.4848    4.9321 C.3     1  UNL1        0.0375
      3 C          60.6203   90.4725    6.0328 C.3     1  UNL1        0.0949
      4 N          59.2911   89.8478    6.3378 N.am    1  UNL1       -0.2773
      5 C          59.1730   88.8356    7.4384 C.2     1  UNL1        0.2553
      6 O          57.8439   88.2109    7.7434 O.2     1  UNL1       -0.2720
      7 C          58.0800   90.2354    5.5421 C.3     1  UNL1        0.0949
      8 C          58.1981   91.2477    4.4415 C.3     1  UNL1        0.0375
      9 C          59.1912   94.2893   -2.4069 C.ar    1  UNL1        0.1384
     10 C          58.8163   92.8570   -2.1661 C.ar    1  UNL1        0.0366
     11 C          58.8719   92.2902   -0.7784 C.ar    1  UNL1       -0.0001
     12 C          59.3025   93.1559    0.3685 C.ar    1  UNL1       -0.0099
     13 C          59.6774   94.5881    0.1277 C.ar    1  UNL1       -0.0218
     14 C          59.6217   95.1549   -1.2599 C.ar    1  UNL1        0.0324
     15 C          60.1306   95.6161    1.1217 C.3     1  UNL1        0.0276
     16 C          60.3209   95.4655    2.6021 C.3     1  UNL1        0.0220
     17 C          60.1049   94.2499    3.4538 C.3     1  UNL1        0.0727
     18 N          59.6453   92.8846    3.0358 N.3     1  UNL1       -0.2702
     19 C          59.2882   92.3977    1.6627 C.3     1  UNL1        0.0988
     20 C          60.4050   95.1142   -4.5507 C.3     1  UNL1        0.2525
     21 O          59.1355   94.8560   -3.7946 O.3     1  UNL1       -0.4714
     22 C          60.3842   88.4480    8.2340 C.3     1  UNL1        0.2042
     23 F          60.1810   89.8476    8.7339 F       1  UNL1       -0.2306
     24 C          60.1667   87.1830    7.4577 C.3     1  UNL1        0.0590
     25 C          61.0898   86.0166    7.6508 C.3     1  UNL1        0.0756
     26 N          62.2304   86.1150    8.6200 N.3     1  UNL1       -0.2688
     27 C          62.4478   87.3800    9.3962 C.3     1  UNL1        0.0756
     28 C          61.5247   88.5465    9.2032 C.3     1  UNL1        0.0590
     29 C          63.1534   84.9485    8.8130 C.3     1  UNL1        0.0993
     30 C          63.2116   84.2496   10.1389 C.ar    1  UNL1       -0.0018
     31 C          63.7726   82.8615   10.2311 C.ar    1  UNL1        0.0179
     32 C          63.8309   82.1626   11.5570 C.ar    1  UNL1        0.1000
     33 N          63.3281   82.8518   12.7907 N.ar    1  UNL1       -0.2296
     34 C          62.7671   84.2398   12.6987 C.ar    1  UNL1        0.1251
     35 N          62.2643   84.9290   13.9324 N.pl3   1  UNL1       -0.3426
     36 C          62.7088   84.9388   11.3728 C.ar    1  UNL1        0.0310
     37 H          62.3025   84.4703   14.8027 H       1  UNL1        0.1437
     38 H          61.8961   85.8400   13.8719 H       1  UNL1        0.1437
@<TRIPOS>BOND
     1    20    21    1
     2    21     9    1
     3     9    10   ar
     4    10    11   ar
     5    11    12   ar
     6    12    13   ar
     7    13    14   ar
     8    13    15    1
     9    15    16    1
    10    16    17    1
    11    17    18    1
    12    18     1    1
    13     1     2    1
    14     2     3    1
    15     3     4    1
    16     4     5   am
    17     5     6    2
    18     5    22    1
    19    22    23    1
    20    22    24    1
    21    24    25    1
    22    25    26    1
    23    26    29    1
    24    29    30    1
    25    30    31   ar
    26    31    32   ar
    27    32    33   ar
    28    33    34   ar
    29    34    35    1
    30    34    36   ar
    31    26    27    1
    32    27    28    1
    33     4     7    1
    34     7     8    1
    35    18    19    1
    36    14     9   ar
    37     8     1    1
    38    19    12    1
    39    28    22    1
    40    36    30   ar
    41    35    37    1
    42    35    38    1
@<TRIPOS>MOLECULE
*****
 38 42 0 0 0
SMALL
GASTEIGER

@<TRIPOS>ATOM
      1 C          61.3890   94.2564   -0.3741 C.3     1  UNL1        0.0612
      2 C          61.7786   92.9516    0.2550 C.3     1  UNL1        0.0375
      3 C          61.2945   92.6092    1.6329 C.3     1  UNL1        0.0949
      4 N          60.4210   93.5716    2.3817 N.am    1  UNL1       -0.2773
      5 C          59.9370   93.2292    3.7595 C.2     1  UNL1        0.2553
      6 O          59.0635   94.1916    4.5083 O.2     1  UNL1       -0.2720
      7 C          60.0314   94.8764    1.7526 C.3     1  UNL1        0.0949
      8 C          60.5155   95.2188    0.3747 C.3     1  UNL1        0.0375
      9 C          65.0815   93.4619   -6.2481 C.ar    1  UNL1        0.1384
     10 C          65.2497   92.4353   -5.1674 C.ar    1  UNL1        0.0366
     11 C          64.4788   92.5612   -3.8868 C.ar    1  UNL1       -0.0001
     12 C          63.5398   93.7138   -3.6869 C.ar    1  UNL1       -0.0099
     13 C          63.3717   94.7403   -4.7675 C.ar    1  UNL1       -0.0218
     14 C          64.1424   94.6144   -6.0481 C.ar    1  UNL1        0.0324
     15 C          62.4950   95.9575   -4.7731 C.3     1  UNL1        0.0276
     16 C          61.5699   96.4487   -3.6991 C.3     1  UNL1        0.0220
     17 C          61.2932   95.8440   -2.3547 C.3     1  UNL1        0.0727
     18 N          61.8730   94.5988   -1.7519 N.3     1  UNL1       -0.2702
     19 C          62.8729   93.6508   -2.3448 C.3     1  UNL1        0.0988
     20 C          67.3175   93.6560   -7.5566 C.3     1  UNL1        0.2525
     21 O          65.8523   93.3359   -7.5287 O.3     1  UNL1       -0.4714
     22 C          60.3266   91.9244    4.3886 C.3     1  UNL1        0.2042
     23 F          61.5995   92.2563    3.6678 F       1  UNL1       -0.2306
     24 C          58.9184   92.0456    4.8910 C.3     1  UNL1        0.0590
     25 C          58.3419   90.9773    5.7721 C.3     1  UNL1        0.0756
     26 N          59.1735   89.7878    6.1508 N.3     1  UNL1       -0.2688
     27 C          60.5816   89.6666    5.6484 C.3     1  UNL1        0.0756
     28 C          61.1582   90.7348    4.7674 C.3     1  UNL1        0.0590
     29 C          58.5969   88.7195    7.0319 C.3     1  UNL1        0.0993
     30 C          59.4573   88.0540    8.0647 C.ar    1  UNL1       -0.0018
     31 C          59.9343   86.6480    7.8507 C.ar    1  UNL1        0.0179
     32 C          60.7947   85.9824    8.8835 C.ar    1  UNL1        0.1000
     33 N          61.1781   86.7229   10.1304 N.ar    1  UNL1       -0.2296
     34 C          60.7012   88.1288   10.3445 C.ar    1  UNL1        0.1251
     35 N          61.0846   88.8692   11.5914 N.pl3   1  UNL1       -0.3426
     36 C          59.8408   88.7943    9.3117 C.ar    1  UNL1        0.0310
     37 H          61.6493   88.4324   12.2693 H       1  UNL1        0.1437
     38 H          60.7715   89.7920   11.7319 H       1  UNL1        0.1437
@<TRIPOS>BOND
     1    20    21    1
     2    21     9    1
     3     9    10   ar
     4    10    11   ar
     5    11    12   ar
     6    12    13   ar
     7    13    14   ar
     8    13    15    1
     9    15    16    1
    10    16    17    1
    11    17    18    1
    12    18     1    1
    13     1     2    1
    14     2     3    1
    15     3     4    1
    16     4     5   am
    17     5     6    2
    18     5    22    1
    19    22    23    1
    20    22    24    1
    21    24    25    1
    22    25    26    1
    23    26    29    1
    24    29    30    1
    25    30    31   ar
    26    31    32   ar
    27    32    33   ar
    28    33    34   ar
    29    34    35    1
    30    34    36   ar
    31    26    27    1
    32    27    28    1
    33     4     7    1
    34     7     8    1
    35    18    19    1
    36    14     9   ar
    37     8     1    1
    38    19    12    1
    39    28    22    1
    40    36    30   ar
    41    35    37    1
    42    35    38    1
@<TRIPOS>MOLECULE
*****
 38 42 0 0 0
SMALL
GASTEIGER

@<TRIPOS>ATOM
      1 C          59.9526   90.5640    5.7645 C.3     1  UNL1        0.0612
      2 C          61.1764   91.1492    5.1242 C.3     1  UNL1        0.0375
      3 C          61.0445   92.0163    3.9073 C.3     1  UNL1        0.0949
      4 N          59.6887   92.2982    3.3306 N.am    1  UNL1       -0.2773
      5 C          59.5568   93.1653    2.1138 C.2     1  UNL1        0.2553
      6 O          58.2011   93.4472    1.5372 O.2     1  UNL1       -0.2720
      7 C          58.4649   91.7130    3.9709 C.3     1  UNL1        0.0949
      8 C          58.5969   90.8459    5.1878 C.3     1  UNL1        0.0375
      9 C          62.5128   88.5335   11.9363 C.ar    1  UNL1        0.1384
     10 C          63.0812   89.7738   11.3129 C.ar    1  UNL1        0.0366
     11 C          62.5649   90.2514    9.9879 C.ar    1  UNL1       -0.0001
     12 C          61.4803   89.4887    9.2865 C.ar    1  UNL1       -0.0099
     13 C          60.9120   88.2485    9.9100 C.ar    1  UNL1       -0.0218
     14 C          61.4282   87.7708   11.2349 C.ar    1  UNL1        0.0324
     15 C          59.8350   87.3465    9.3840 C.3     1  UNL1        0.0276
     16 C          59.0604   87.4621    8.1047 C.3     1  UNL1        0.0220
     17 C          59.1714   88.5081    7.0355 C.3     1  UNL1        0.0727
     18 N          60.0845   89.6969    6.9813 N.3     1  UNL1       -0.2702
     19 C          61.1120   90.1334    7.9831 C.3     1  UNL1        0.0988
     20 C          64.0684   88.8528   13.9925 C.3     1  UNL1        0.2525
     21 O          63.0291   88.0559   13.2612 O.3     1  UNL1       -0.4714
     22 C          60.7807   93.7504    1.4736 C.3     1  UNL1        0.2042
     23 F          60.6588   94.6467    2.6702 F       1  UNL1       -0.2306
     24 C          60.4774   92.6509    0.4993 C.3     1  UNL1        0.0590
     25 C          61.3557   92.4479   -0.6995 C.3     1  UNL1        0.0756
     26 N          62.5373   93.3443   -0.9242 N.3     1  UNL1       -0.2688
     27 C          62.8404   94.4438    0.0501 C.3     1  UNL1        0.0756
     28 C          61.9621   94.6469    1.2489 C.3     1  UNL1        0.0590
     29 C          63.4155   93.1413   -2.1231 C.3     1  UNL1        0.0993
     30 C          62.9292   93.5393   -3.4851 C.ar    1  UNL1       -0.0018
     31 C          61.7726   94.4847   -3.6218 C.ar    1  UNL1        0.0179
     32 C          61.2862   94.8828   -4.9838 C.ar    1  UNL1        0.1000
     33 N          61.9565   94.3355   -6.2090 N.ar    1  UNL1       -0.2296
     34 C          63.1130   93.3902   -6.0724 C.ar    1  UNL1        0.1251
     35 N          63.7833   92.8429   -7.2976 N.pl3   1  UNL1       -0.3426
     36 C          63.5994   92.9921   -4.7104 C.ar    1  UNL1        0.0310
     37 H          63.4641   93.1042   -8.1916 H       1  UNL1        0.1437
     38 H          64.5424   92.2225   -7.2079 H       1  UNL1        0.1437
@<TRIPOS>BOND
     1    20    21    1
     2    21     9    1
     3     9    10   ar
     4    10    11   ar
     5    11    12   ar
     6    12    13   ar
     7    13    14   ar
     8    13    15    1
     9    15    16    1
    10    16    17    1
    11    17    18    1
    12    18     1    1
    13     1     2    1
    14     2     3    1
    15     3     4    1
    16     4     5   am
    17     5     6    2
    18     5    22    1
    19    22    23    1
    20    22    24    1
    21    24    25    1
    22    25    26    1
    23    26    29    1
    24    29    30    1
    25    30    31   ar
    26    31    32   ar
    27    32    33   ar
    28    33    34   ar
    29    34    35    1
    30    34    36   ar
    31    26    27    1
    32    27    28    1
    33     4     7    1
    34     7     8    1
    35    18    19    1
    36    14     9   ar
    37     8     1    1
    38    19    12    1
    39    28    22    1
    40    36    30   ar
    41    35    37    1
    42    35    38    1
