@<TRIPOS>MOLECULE
*****
 33 37 0 0 0
SMALL
GASTEIGER

@<TRIPOS>ATOM
      1 C          72.6159   79.7522   11.9460 C.3     1  UNL1        0.1961
      2 O          72.4097   80.4944   10.6589 O.3     1  UNL1       -0.3728
      3 C          73.0932   81.1150   12.3519 C.2     1  UNL1        0.3455
      4 O          73.0777   82.2411   11.3610 O.2     1  UNL1       -0.2471
      5 O          73.5862   81.3519   13.7487 O.3     1  UNL1       -0.4415
      6 C          73.6018   80.2259   14.7395 C.3     1  UNL1        0.2396
      7 C          73.1244   78.8631   14.3336 C.ar    1  UNL1        0.0762
      8 C          72.6315   78.6262   12.9369 C.ar    1  UNL1        0.0175
      9 C          72.1542   77.2633   12.5310 C.ar    1  UNL1        0.0172
     10 C          72.1698   76.1373   13.5219 C.ar    1  UNL1        0.0799
     11 N          72.6627   76.3742   14.9186 N.ar    1  UNL1       -0.2900
     12 C          73.1400   77.7370   15.3245 C.ar    1  UNL1        0.2604
     13 O          73.6329   77.9738   16.7213 O.2     1  UNL1       -0.2672
     14 C          72.5615   75.0807   15.6715 C.3     1  UNL1        0.1373
     15 C          72.0060   74.0444   14.7400 C.ar    1  UNL1        0.0196
     16 C          71.6893   72.5906   14.9299 C.ar    1  UNL1        0.0005
     17 C          71.1306   71.7898   13.7913 C.ar    1  UNL1        0.0177
     18 C          70.8139   70.3360   13.9812 C.ar    1  UNL1        0.0290
     19 C          70.2552   69.5351   12.8426 C.ar    1  UNL1        0.1310
     20 O          69.9385   68.0813   13.0325 O.3     1  UNL1       -0.5058
     21 C          70.0131   70.1881   11.5141 C.ar    1  UNL1        0.0379
     22 C          70.3297   71.6419   11.3241 C.ar    1  UNL1        0.0222
     23 C          70.8885   72.4428   12.4628 C.ar    1  UNL1        0.0812
     24 N          71.2052   73.8967   12.2729 N.ar    1  UNL1       -0.2442
     25 C          71.7639   74.6975   13.4115 C.ar    1  UNL1        0.0949
     26 H          72.6829   81.4184   10.7711 H       1  UNL1        0.2114
     27 H          70.0898   67.6734   13.8623 H       1  UNL1        0.2922
     28 C          72.1624   78.7349    9.5988 C.3     1  UNL1        0.0034
     29 C          72.0669   78.6471   11.0931 C.3     1  UNL1        0.0422
     30 C          71.0560   69.6829   15.3097 C.3     1  UNL1        0.1023
     31 N          72.3788   69.0370   15.5980 N.3     1  UNL1       -0.2664
     32 C          72.6206   68.3834   16.9263 C.3     1  UNL1        0.0899
     33 C          73.4597   69.0446   14.5580 C.3     1  UNL1        0.0899
@<TRIPOS>BOND
     1    28    29    1
     2    29     1    1
     3     1     2    1
     4     1     3    1
     5     3     4    2
     6     3     5    1
     7     5     6    1
     8     6     7    1
     9     7     8   ar
    10     8     9   ar
    11     9    10   ar
    12    10    11   ar
    13    11    12   ar
    14    12    13    2
    15    11    14    1
    16    14    15    1
    17    15    16   ar
    18    16    17   ar
    19    17    18   ar
    20    18    30    1
    21    30    31    1
    22    31    32    1
    23    31    33    1
    24    18    19   ar
    25    19    20    1
    26    19    21   ar
    27    21    22   ar
    28    22    23   ar
    29    23    24   ar
    30    24    25   ar
    31     8     1    1
    32    25    10    1
    33    12     7   ar
    34    25    15   ar
    35    23    17   ar
    36     2    26    1
    37    20    27    1
@<TRIPOS>MOLECULE
*****
 33 37 0 0 0
SMALL
GASTEIGER

@<TRIPOS>ATOM
      1 C          63.2800   84.5531   14.5715 C.3     1  UNL1        0.1961
      2 O          63.6301   83.8095   15.8263 O.3     1  UNL1       -0.3728
      3 C          62.6384   83.2295   14.2775 C.2     1  UNL1        0.3455
      4 O          62.7234   82.1159   15.2790 O.2     1  UNL1       -0.2471
      5 O          61.9118   83.0194   12.9822 O.3     1  UNL1       -0.4415
      6 C          61.8267   84.1329   11.9808 C.3     1  UNL1        0.2396
      7 C          62.4683   85.4565   12.2747 C.ar    1  UNL1        0.0762
      8 C          63.1950   85.6666   13.5701 C.ar    1  UNL1        0.0175
      9 C          63.8366   86.9902   13.8640 C.ar    1  UNL1        0.0172
     10 C          63.7516   88.1037   12.8626 C.ar    1  UNL1        0.0799
     11 N          63.0249   87.8937   11.5673 N.ar    1  UNL1       -0.2900
     12 C          62.3833   86.5701   11.2733 C.ar    1  UNL1        0.2604
     13 O          61.6567   86.3600    9.9780 O.2     1  UNL1       -0.2672
     14 C          63.1060   89.1670   10.7785 C.3     1  UNL1        0.1373
     15 C          63.8828   90.1640   11.5864 C.ar    1  UNL1        0.0196
     16 C          64.2783   91.5854   11.3155 C.ar    1  UNL1        0.0005
     17 C          65.0728   92.3496   12.3327 C.ar    1  UNL1        0.0177
     18 C          65.4683   93.7709   12.0619 C.ar    1  UNL1        0.0290
     19 C          66.2629   94.5352   13.0791 C.ar    1  UNL1        0.1310
     20 O          66.6584   95.9564   12.8083 O.3     1  UNL1       -0.5058
     21 C          66.6618   93.8780   14.3671 C.ar    1  UNL1        0.0379
     22 C          66.2663   92.4567   14.6380 C.ar    1  UNL1        0.0222
     23 C          65.4718   91.6925   13.6208 C.ar    1  UNL1        0.0812
     24 N          65.0762   90.2711   13.8916 N.ar    1  UNL1       -0.2442
     25 C          64.2817   89.5069   12.8744 C.ar    1  UNL1        0.0949
     26 H          63.2707   82.9097   15.7800 H       1  UNL1        0.2114
     27 H          66.4092   96.3669   12.0037 H       1  UNL1        0.2922
     28 C          63.7061   85.9392   16.7272 C.3     1  UNL1        0.0034
     29 C          64.0432   85.6185   15.3012 C.3     1  UNL1        0.0422
     30 C          65.0694   94.4280   10.7739 C.3     1  UNL1        0.1023
     31 N          66.1004   95.1257    9.9371 N.3     1  UNL1       -0.2664
     32 C          67.3556   94.4068    9.5398 C.3     1  UNL1        0.0899
     33 C          65.8762   96.5422    9.4975 C.3     1  UNL1        0.0899
@<TRIPOS>BOND
     1    28    29    1
     2    29     1    1
     3     1     2    1
     4     1     3    1
     5     3     4    2
     6     3     5    1
     7     5     6    1
     8     6     7    1
     9     7     8   ar
    10     8     9   ar
    11     9    10   ar
    12    10    11   ar
    13    11    12   ar
    14    12    13    2
    15    11    14    1
    16    14    15    1
    17    15    16   ar
    18    16    17   ar
    19    17    18   ar
    20    18    30    1
    21    30    31    1
    22    31    32    1
    23    31    33    1
    24    18    19   ar
    25    19    20    1
    26    19    21   ar
    27    21    22   ar
    28    22    23   ar
    29    23    24   ar
    30    24    25   ar
    31     8     1    1
    32    25    10    1
    33    12     7   ar
    34    25    15   ar
    35    23    17   ar
    36     2    26    1
    37    20    27    1
@<TRIPOS>MOLECULE
*****
 33 37 0 0 0
SMALL
GASTEIGER

@<TRIPOS>ATOM
      1 C          72.8300   79.5651   13.6076 C.3     1  UNL1        0.1961
      2 O          72.6718   80.8632   14.3425 O.3     1  UNL1       -0.3728
      3 C          73.2316   80.5261   12.5282 C.2     1  UNL1        0.3455
      4 O          73.2320   82.0014   12.7996 O.2     1  UNL1       -0.2471
      5 O          73.6328   80.0119   11.1774 O.3     1  UNL1       -0.4415
      6 C          73.6324   78.5367   10.9060 C.3     1  UNL1        0.2396
      7 C          73.2308   77.5757   11.9854 C.ar    1  UNL1        0.0762
      8 C          72.8296   78.0899   13.3362 C.ar    1  UNL1        0.0175
      9 C          72.4280   77.1288   14.4156 C.ar    1  UNL1        0.0172
     10 C          72.4276   75.6536   14.1443 C.ar    1  UNL1        0.0799
     11 N          72.8288   75.1394   12.7935 N.ar    1  UNL1       -0.2900
     12 C          73.2304   76.1004   11.7141 C.ar    1  UNL1        0.2604
     13 O          73.6316   75.5862   10.3633 O.2     1  UNL1       -0.2672
     14 C          72.7320   73.6427   12.8198 C.3     1  UNL1        0.1373
     15 C          72.2710   73.2319   14.1868 C.ar    1  UNL1        0.0196
     16 C          71.9982   71.8868   14.7919 C.ar    1  UNL1        0.0005
     17 C          71.5373   71.7844   16.2157 C.ar    1  UNL1        0.0177
     18 C          71.2646   70.4393   16.8208 C.ar    1  UNL1        0.0290
     19 C          70.8037   70.3369   18.2446 C.ar    1  UNL1        0.1310
     20 O          70.5309   68.9918   18.8497 O.3     1  UNL1       -0.5058
     21 C          70.6155   71.5797   19.0631 C.ar    1  UNL1        0.0379
     22 C          70.8883   72.9249   18.4581 C.ar    1  UNL1        0.0222
     23 C          71.3492   73.0272   17.0342 C.ar    1  UNL1        0.0812
     24 N          71.6220   74.3723   16.4291 N.ar    1  UNL1       -0.2442
     25 C          72.0829   74.4747   15.0053 C.ar    1  UNL1        0.0949
     26 H          72.9034   81.5984   13.7537 H       1  UNL1        0.2114
     27 H          70.6484   68.2155   18.3384 H       1  UNL1        0.2922
     28 C          72.4995   79.9218   16.1598 C.3     1  UNL1        0.0034
     29 C          72.3735   79.0548   14.9423 C.3     1  UNL1        0.0422
     30 C          71.4527   69.1966   16.0022 C.3     1  UNL1        0.1023
     31 N          72.8095   68.5653   15.8980 N.3     1  UNL1       -0.2664
     32 C          73.3664   67.7892   17.0546 C.3     1  UNL1        0.0899
     33 C          73.6092   68.7101   14.6374 C.3     1  UNL1        0.0899
@<TRIPOS>BOND
     1    28    29    1
     2    29     1    1
     3     1     2    1
     4     1     3    1
     5     3     4    2
     6     3     5    1
     7     5     6    1
     8     6     7    1
     9     7     8   ar
    10     8     9   ar
    11     9    10   ar
    12    10    11   ar
    13    11    12   ar
    14    12    13    2
    15    11    14    1
    16    14    15    1
    17    15    16   ar
    18    16    17   ar
    19    17    18   ar
    20    18    30    1
    21    30    31    1
    22    31    32    1
    23    31    33    1
    24    18    19   ar
    25    19    20    1
    26    19    21   ar
    27    21    22   ar
    28    22    23   ar
    29    23    24   ar
    30    24    25   ar
    31     8     1    1
    32    25    10    1
    33    12     7   ar
    34    25    15   ar
    35    23    17   ar
    36     2    26    1
    37    20    27    1
@<TRIPOS>MOLECULE
*****
 33 37 0 0 0
SMALL
GASTEIGER

@<TRIPOS>ATOM
      1 C          65.9714   93.2789   13.5405 C.3     1  UNL1        0.1961
      2 O          66.7479   94.0343   14.5780 O.3     1  UNL1       -0.3728
      3 C          66.1305   94.5953   12.8394 C.2     1  UNL1        0.3455
      4 O          66.8686   95.7169   13.5083 O.2     1  UNL1       -0.2471
      5 O          65.5516   94.7903   11.4694 O.3     1  UNL1       -0.4415
      6 C          64.8136   93.6688   10.8005 C.3     1  UNL1        0.2396
      7 C          64.6544   92.3523   11.5016 C.ar    1  UNL1        0.0762
      8 C          65.2334   92.1574   12.8716 C.ar    1  UNL1        0.0175
      9 C          65.0742   90.8408   13.5726 C.ar    1  UNL1        0.0172
     10 C          64.3361   89.7193   12.9037 C.ar    1  UNL1        0.0799
     11 N          63.7572   89.9143   11.5338 N.ar    1  UNL1       -0.2900
     12 C          63.9164   91.2307   10.8327 C.ar    1  UNL1        0.2604
     13 O          63.3374   91.4257    9.4627 O.2     1  UNL1       -0.2672
     14 C          63.0857   88.6358   11.1281 C.3     1  UNL1        0.1373
     15 C          63.2495   87.6507   12.2473 C.ar    1  UNL1        0.0196
     16 C          62.7949   86.2304   12.4090 C.ar    1  UNL1        0.0005
     17 C          63.1131   85.4798   13.6681 C.ar    1  UNL1        0.0177
     18 C          62.6584   84.0596   13.8298 C.ar    1  UNL1        0.0290
     19 C          62.9766   83.3089   15.0889 C.ar    1  UNL1        0.1310
     20 O          62.5219   81.8887   15.2506 O.3     1  UNL1       -0.5058
     21 C          63.7494   83.9785   16.1863 C.ar    1  UNL1        0.0379
     22 C          64.2041   85.3988   16.0247 C.ar    1  UNL1        0.0222
     23 C          63.8859   86.1494   14.7655 C.ar    1  UNL1        0.0812
     24 N          64.3405   87.5697   14.6038 N.ar    1  UNL1       -0.2442
     25 C          64.0224   88.3203   13.3447 C.ar    1  UNL1        0.0949
     26 H          66.9303   94.9310   14.2561 H       1  UNL1        0.2114
     27 H          62.0392   81.4704   14.5650 H       1  UNL1        0.2922
     28 C          66.7838   92.5299   15.8919 C.3     1  UNL1        0.0034
     29 C          66.0819   92.2247   14.6019 C.3     1  UNL1        0.0422
     30 C          61.8856   83.3899   12.7324 C.3     1  UNL1        0.1023
     31 N          62.5566   82.3771   11.8527 N.3     1  UNL1       -0.2664
     32 C          62.4174   80.9138   12.1524 C.3     1  UNL1        0.0899
     33 C          63.3669   82.8274   10.6734 C.3     1  UNL1        0.0899
@<TRIPOS>BOND
     1    28    29    1
     2    29     1    1
     3     1     2    1
     4     1     3    1
     5     3     4    2
     6     3     5    1
     7     5     6    1
     8     6     7    1
     9     7     8   ar
    10     8     9   ar
    11     9    10   ar
    12    10    11   ar
    13    11    12   ar
    14    12    13    2
    15    11    14    1
    16    14    15    1
    17    15    16   ar
    18    16    17   ar
    19    17    18   ar
    20    18    30    1
    21    30    31    1
    22    31    32    1
    23    31    33    1
    24    18    19   ar
    25    19    20    1
    26    19    21   ar
    27    21    22   ar
    28    22    23   ar
    29    23    24   ar
    30    24    25   ar
    31     8     1    1
    32    25    10    1
    33    12     7   ar
    34    25    15   ar
    35    23    17   ar
    36     2    26    1
    37    20    27    1
@<TRIPOS>MOLECULE
*****
 33 37 0 0 0
SMALL
GASTEIGER

@<TRIPOS>ATOM
      1 C          62.4279   83.6062   12.6889 C.3     1  UNL1        0.1961
      2 O          61.9122   82.8176   11.5217 O.3     1  UNL1       -0.3728
      3 C          62.1655   82.2903   13.3592 C.2     1  UNL1        0.3455
      4 O          61.6208   81.1397   12.5657 O.2     1  UNL1       -0.2471
      5 O          62.4478   82.1248   14.8231 O.3     1  UNL1       -0.4415
      6 C          62.9925   83.2753   15.6166 C.3     1  UNL1        0.2396
      7 C          63.2549   84.5912   14.9463 C.ar    1  UNL1        0.0762
      8 C          62.9726   84.7567   13.4824 C.ar    1  UNL1        0.0175
      9 C          63.2350   86.0727   12.8120 C.ar    1  UNL1        0.0172
     10 C          63.7797   87.2231   13.6055 C.ar    1  UNL1        0.0799
     11 N          64.0620   87.0577   15.0694 N.ar    1  UNL1       -0.2900
     12 C          63.7996   85.7417   15.7398 C.ar    1  UNL1        0.2604
     13 O          64.0818   85.5763   17.2037 O.2     1  UNL1       -0.2672
     14 C          64.5924   88.3609   15.5894 C.3     1  UNL1        0.1373
     15 C          64.6379   89.3318   14.4469 C.ar    1  UNL1        0.0196
     16 C          65.0719   90.7653   14.3646 C.ar    1  UNL1        0.0005
     17 C          65.0035   91.4956   13.0562 C.ar    1  UNL1        0.0177
     18 C          65.4374   92.9291   12.9739 C.ar    1  UNL1        0.0290
     19 C          65.3691   93.6595   11.6655 C.ar    1  UNL1        0.1310
     20 O          65.8030   95.0929   11.5832 O.3     1  UNL1       -0.5058
     21 C          64.8669   92.9563   10.4395 C.ar    1  UNL1        0.0379
     22 C          64.4329   91.5228   10.5217 C.ar    1  UNL1        0.0222
     23 C          64.5013   90.7925   11.8301 C.ar    1  UNL1        0.0812
     24 N          64.0674   89.3589   11.9125 N.ar    1  UNL1       -0.2442
     25 C          64.1357   88.6286   13.2208 C.ar    1  UNL1        0.0949
     26 H          61.6940   81.9177   11.8106 H       1  UNL1        0.2114
     27 H          66.1168   95.5322   12.3491 H       1  UNL1        0.2922
     28 C          63.0227   84.2816   10.2516 C.3     1  UNL1        0.0034
     29 C          62.5112   84.6483   11.6131 C.3     1  UNL1        0.0422
     30 C          65.9397   93.6322   14.2000 C.3     1  UNL1        0.1023
     31 N          67.1359   93.1006   14.9325 N.3     1  UNL1       -0.2664
     32 C          67.1096   92.9859   16.4280 C.3     1  UNL1        0.0899
     33 C          68.3582   92.6836   14.1697 C.3     1  UNL1        0.0899
@<TRIPOS>BOND
     1    28    29    1
     2    29     1    1
     3     1     2    1
     4     1     3    1
     5     3     4    2
     6     3     5    1
     7     5     6    1
     8     6     7    1
     9     7     8   ar
    10     8     9   ar
    11     9    10   ar
    12    10    11   ar
    13    11    12   ar
    14    12    13    2
    15    11    14    1
    16    14    15    1
    17    15    16   ar
    18    16    17   ar
    19    17    18   ar
    20    18    30    1
    21    30    31    1
    22    31    32    1
    23    31    33    1
    24    18    19   ar
    25    19    20    1
    26    19    21   ar
    27    21    22   ar
    28    22    23   ar
    29    23    24   ar
    30    24    25   ar
    31     8     1    1
    32    25    10    1
    33    12     7   ar
    34    25    15   ar
    35    23    17   ar
    36     2    26    1
    37    20    27    1
