@<TRIPOS>MOLECULE
*****
 56 61 0 0 0
SMALL
GASTEIGER

@<TRIPOS>ATOM
      1 N          61.2951   85.5282    8.0298 N.3     1  UNL1       -0.1862
      2 C          62.1865   84.3831    8.4096 C.3     1  UNL1        0.1775
      3 C          62.8954   84.3910    9.7315 C.2     1  UNL1        0.2452
      4 O          63.7869   83.2459   10.1112 O.2     1  UNL1       -0.2732
      5 N          62.7130   85.5439   10.6735 N.am    1  UNL1       -0.2541
      6 C          63.4220   85.5517   11.9954 C.3     1  UNL1        0.1577
      7 C          63.2396   86.7046   12.9375 C.2     1  UNL1        0.2445
      8 O          63.9486   86.7124   14.2593 O.2     1  UNL1       -0.2731
      9 N          62.3482   87.8497   12.5577 N.am    1  UNL1       -0.2705
     10 C          61.6392   87.8419   11.2359 C.3     1  UNL1        0.1359
     11 C          61.8216   86.6889   10.2938 C.3     1  UNL1        0.1908
     12 N          61.1126   86.6810    8.9719 N.am    1  UNL1       -0.1863
     13 C          60.2212   87.8262    8.5922 C.2     1  UNL1        0.3191
     14 O          60.0388   88.9790    9.5342 O.2     1  UNL1       -0.2512
     15 N          59.5122   87.8183    7.2703 N.am    1  UNL1       -0.2836
     16 H          59.6320   87.0616    6.6520 H       1  UNL1        0.1513
     17 C          60.5861   85.5203    6.7080 C.3     1  UNL1        0.1188
     18 C          61.9989   84.3553    4.8651 C.2     1  UNL1       -0.0034
     19 C          60.7909   84.3812    5.7538 C.2     1  UNL1       -0.0071
     20 C          64.3134   84.4067   12.3752 C.3     1  UNL1        0.0556
     21 C          63.7166   83.1295   12.8876 C.ar    1  UNL1       -0.0198
     22 C          64.4080   81.8231   12.6323 C.ar    1  UNL1       -0.0011
     23 C          63.8112   80.5459   13.1448 C.ar    1  UNL1        0.0363
     24 C          62.5229   80.5752   13.9125 C.ar    1  UNL1        0.1337
     25 O          61.9261   79.2980   14.4250 O.3     1  UNL1       -0.5055
     26 C          61.8314   81.8816   14.1678 C.ar    1  UNL1        0.0363
     27 C          62.4282   83.1588   13.6554 C.ar    1  UNL1       -0.0011
     28 H          62.3580   78.4819   14.2655 H       1  UNL1        0.2922
     29 C          62.1658   89.0026   13.4998 C.3     1  UNL1        0.1217
     30 C          63.2678   90.0037   13.6822 C.ar    1  UNL1        0.0135
     31 C          63.9954   90.0880   14.9912 C.ar    1  UNL1       -0.0012
     32 C          65.0974   91.0891   15.1737 C.ar    1  UNL1       -0.0002
     33 C          65.4719   92.0059   14.0471 C.ar    1  UNL1        0.0016
     34 C          64.7443   91.9216   12.7381 C.ar    1  UNL1        0.0214
     35 C          64.8910   92.6881   11.4571 C.ar    1  UNL1        0.0719
     36 C          63.8797   92.1607   10.4829 C.ar    1  UNL1        0.0805
     37 N          63.1079   91.0683   11.1619 N.ar    1  UNL1       -0.3241
     38 C          61.9969   90.2647   10.5538 C.3     1  UNL1        0.1305
     39 C          63.6423   90.9205   12.5556 C.ar    1  UNL1        0.0577
     40 C          65.8762   93.7888   11.1961 C.2     1  UNL1        0.2477
     41 O          66.9505   94.0873   12.1995 O.2     1  UNL1       -0.2701
     42 N          65.7871   94.5908    9.9317 N.am    1  UNL1       -0.2932
     43 H          65.0820   94.3949    9.2731 H       1  UNL1        0.1502
     44 C          66.7721   95.6915    9.6706 C.3     1  UNL1        0.1717
     45 C          66.8666   96.8531   10.6148 C.3     1  UNL1        0.0334
     46 C          67.6628   95.6304    8.4652 C.2     1  UNL1        0.3351
     47 O          67.8717   96.8548    7.6242 O.2     1  UNL1       -0.2483
     48 O          68.3446   94.3450    8.1008 O.3     1  UNL1       -0.4433
     49 C          68.6919   93.3510    9.1691 C.3     1  UNL1        0.2557
     50 C          58.6208   88.9633    6.8905 C.3     1  UNL1        0.1177
     51 C          59.1179   90.0208    5.9499 C.ar    1  UNL1       -0.0025
     52 C          60.5856   90.1416    5.6653 C.ar    1  UNL1       -0.0026
     53 C          61.0826   91.1991    4.7247 C.ar    1  UNL1       -0.0003
     54 C          60.1119   92.1357    4.0687 C.ar    1  UNL1       -0.0000
     55 C          58.6441   92.0149    4.3533 C.ar    1  UNL1       -0.0003
     56 C          58.1470   90.9574    5.2939 C.ar    1  UNL1       -0.0026
@<TRIPOS>BOND
     1    18    19    2
     2    19    17    1
     3    17     1    1
     4     1     2    1
     5     2     3    1
     6     3     4    2
     7     3     5   am
     8     5     6    1
     9     6    20    1
    10    20    21    1
    11    21    22   ar
    12    22    23   ar
    13    23    24   ar
    14    24    25    1
    15    24    26   ar
    16    26    27   ar
    17     6     7    1
    18     7     8    2
    19     7     9   am
    20     9    29    1
    21    29    30    1
    22    30    31   ar
    23    31    32   ar
    24    32    33   ar
    25    33    34   ar
    26    34    35   ar
    27    35    40    1
    28    40    41    2
    29    40    42   am
    30    42    44    1
    31    44    45    1
    32    44    46    1
    33    46    47    2
    34    46    48    1
    35    48    49    1
    36    35    36   ar
    37    36    37   ar
    38    37    38    1
    39    37    39   ar
    40     9    10    1
    41    11    10    1
    42    11    12    1
    43    12    13   am
    44    13    14    2
    45    13    15   am
    46    15    50    1
    47    50    51    1
    48    51    52   ar
    49    52    53   ar
    50    53    54   ar
    51    54    55   ar
    52    55    56   ar
    53    12     1    1
    54    56    51   ar
    55    11     5    1
    56    27    21   ar
    57    39    30   ar
    58    39    34   ar
    59    25    28    1
    60    42    43    1
    61    15    16    1
@<TRIPOS>MOLECULE
*****
 56 61 0 0 0
SMALL
GASTEIGER

@<TRIPOS>ATOM
      1 N          63.8282   86.0653   15.9718 N.3     1  UNL1       -0.1862
      2 C          63.9492   84.5935   16.2343 C.3     1  UNL1        0.1775
      3 C          63.8074   83.6161   15.1053 C.2     1  UNL1        0.2452
      4 O          63.9285   82.1442   15.3679 O.2     1  UNL1       -0.2732
      5 N          63.5445   84.1105   13.7138 N.am    1  UNL1       -0.2541
      6 C          63.4026   83.1332   12.5848 C.3     1  UNL1        0.1577
      7 C          63.1397   83.6276   11.1933 C.2     1  UNL1        0.2445
      8 O          62.9978   82.6502   10.0643 O.2     1  UNL1       -0.2731
      9 N          63.0186   85.0995   10.9307 N.am    1  UNL1       -0.2705
     10 C          63.1604   86.0769   12.0597 C.3     1  UNL1        0.1359
     11 C          63.4234   85.5824   13.4513 C.3     1  UNL1        0.1908
     12 N          63.5652   86.5598   14.5803 N.am    1  UNL1       -0.1863
     13 C          63.4442   88.0317   14.3177 C.2     1  UNL1        0.3191
     14 O          63.1812   88.5261   12.9262 O.2     1  UNL1       -0.2512
     15 N          63.5860   89.0091   15.4466 N.am    1  UNL1       -0.2836
     16 H          63.7586   88.6845   16.3599 H       1  UNL1        0.1513
     17 C          63.9700   87.0427   17.1007 C.3     1  UNL1        0.1188
     18 C          62.6687   87.0518   19.3494 C.2     1  UNL1       -0.0034
     19 C          62.7673   87.4405   17.9040 C.2     1  UNL1       -0.0071
     20 C          63.5237   81.6613   12.8473 C.3     1  UNL1        0.0556
     21 C          62.3211   80.8748   13.2779 C.ar    1  UNL1       -0.0198
     22 C          62.3491   79.3759   13.2308 C.ar    1  UNL1       -0.0011
     23 C          61.1466   78.5894   13.6614 C.ar    1  UNL1        0.0363
     24 C          59.9161   79.3019   14.1390 C.ar    1  UNL1        0.1337
     25 O          58.7135   78.5154   14.5696 O.3     1  UNL1       -0.5055
     26 C          59.8881   80.8010   14.1862 C.ar    1  UNL1        0.0363
     27 C          61.0906   81.5874   13.7556 C.ar    1  UNL1       -0.0011
     28 H          58.7310   77.5791   14.5402 H       1  UNL1        0.2922
     29 C          62.7557   85.5940    9.5392 C.3     1  UNL1        0.1217
     30 C          62.1225   86.9373    9.3277 C.ar    1  UNL1        0.0135
     31 C          62.5174   88.0972   10.1930 C.ar    1  UNL1       -0.0012
     32 C          61.8843   89.4405    9.9816 C.ar    1  UNL1       -0.0002
     33 C          60.8564   89.6239    8.9047 C.ar    1  UNL1        0.0016
     34 C          60.4615   88.4640    8.0394 C.ar    1  UNL1        0.0214
     35 C          59.4845   88.3430    6.9076 C.ar    1  UNL1        0.0719
     36 C          59.5139   86.9249    6.4197 C.ar    1  UNL1        0.0805
     37 N          60.5089   86.1696    7.2498 N.ar    1  UNL1       -0.3241
     38 C          60.8571   84.7178    7.1045 C.3     1  UNL1        0.1305
     39 C          61.0945   87.1208    8.2509 C.ar    1  UNL1        0.0577
     40 C          58.6285   89.4464    6.3600 C.2     1  UNL1        0.2477
     41 O          57.1802   89.5316    6.7410 O.2     1  UNL1       -0.2701
     42 N          59.2208   90.4646    5.4313 N.am    1  UNL1       -0.2932
     43 H          60.1714   90.4087    5.1813 H       1  UNL1        0.1502
     44 C          58.3650   91.5680    4.8836 C.3     1  UNL1        0.1717
     45 C          56.8744   91.5096    5.0412 C.3     1  UNL1        0.0334
     46 C          58.9997   92.7298    4.1784 C.2     1  UNL1        0.3351
     47 O          59.2775   94.0002    4.9260 O.2     1  UNL1       -0.2483
     48 O          59.3566   92.6212    2.7255 O.3     1  UNL1       -0.4433
     49 C          60.6860   93.1188    2.2405 C.3     1  UNL1        0.2557
     50 C          63.4649   90.4809   15.1841 C.3     1  UNL1        0.1177
     51 C          64.5397   91.1977   14.4218 C.ar    1  UNL1       -0.0025
     52 C          65.8439   91.5209   15.0886 C.ar    1  UNL1       -0.0026
     53 C          66.9186   92.2377   14.3262 C.ar    1  UNL1       -0.0003
     54 C          66.6892   92.6313   12.8971 C.ar    1  UNL1       -0.0000
     55 C          65.3849   92.3081   12.2303 C.ar    1  UNL1       -0.0003
     56 C          64.3102   91.5913   12.9926 C.ar    1  UNL1       -0.0026
@<TRIPOS>BOND
     1    18    19    2
     2    19    17    1
     3    17     1    1
     4     1     2    1
     5     2     3    1
     6     3     4    2
     7     3     5   am
     8     5     6    1
     9     6    20    1
    10    20    21    1
    11    21    22   ar
    12    22    23   ar
    13    23    24   ar
    14    24    25    1
    15    24    26   ar
    16    26    27   ar
    17     6     7    1
    18     7     8    2
    19     7     9   am
    20     9    29    1
    21    29    30    1
    22    30    31   ar
    23    31    32   ar
    24    32    33   ar
    25    33    34   ar
    26    34    35   ar
    27    35    40    1
    28    40    41    2
    29    40    42   am
    30    42    44    1
    31    44    45    1
    32    44    46    1
    33    46    47    2
    34    46    48    1
    35    48    49    1
    36    35    36   ar
    37    36    37   ar
    38    37    38    1
    39    37    39   ar
    40     9    10    1
    41    11    10    1
    42    11    12    1
    43    12    13   am
    44    13    14    2
    45    13    15   am
    46    15    50    1
    47    50    51    1
    48    51    52   ar
    49    52    53   ar
    50    53    54   ar
    51    54    55   ar
    52    55    56   ar
    53    12     1    1
    54    56    51   ar
    55    11     5    1
    56    27    21   ar
    57    39    30   ar
    58    39    34   ar
    59    25    28    1
    60    42    43    1
    61    15    16    1
