@<TRIPOS>MOLECULE
*****
 26 28 0 0 0
SMALL
GASTEIGER

@<TRIPOS>ATOM
      1 C          63.6159   83.8339   11.9646 C.ar    1  UNL1        0.0286
      2 C          62.8486   85.0632   12.3519 C.ar    1  UNL1        0.0147
      3 C          62.3133   85.9784   11.2909 C.ar    1  UNL1        0.0482
      4 C          62.5453   85.6643    9.8425 C.ar    1  UNL1        0.0177
      5 C          63.3127   84.4350    9.4553 C.ar    1  UNL1        0.0376
      6 C          63.8480   83.5198   10.5164 C.ar    1  UNL1        0.1310
      7 O          64.6153   82.2904   10.1291 O.3     1  UNL1       -0.5058
      8 H          64.7603   82.0942    9.2245 H       1  UNL1        0.2922
      9 N          61.5460   87.2077   11.6781 N.pl3   1  UNL1       -0.3125
     10 H          60.7054   87.1244   12.1837 H       1  UNL1        0.1522
     11 C          62.0594   88.5641   11.2949 C.ar    1  UNL1        0.0513
     12 C          61.6009   89.2068   10.0195 C.ar    1  UNL1        0.0353
     13 C          62.1144   90.5631    9.6364 C.ar    1  UNL1        0.1001
     14 N          63.0864   91.2766   10.5286 N.ar    1  UNL1       -0.2437
     15 C          63.5449   90.6339   11.8040 C.ar    1  UNL1        0.0833
     16 C          64.5169   91.3474   12.6962 C.ar    1  UNL1        0.0305
     17 C          64.9755   90.7047   13.9716 C.ar    1  UNL1        0.0592
     18 CL         65.9475   91.4182   14.8638 Cl      1  UNL1       -0.0822
     19 C          64.4620   89.3483   14.3548 C.ar    1  UNL1        0.0115
     20 C          63.4900   88.6348   13.4625 C.ar    1  UNL1        0.0036
     21 C          63.0315   89.2776   12.1871 C.ar    1  UNL1        0.0312
     22 C          64.1512   82.9186   13.0257 C.3     1  UNL1        0.0987
     23 N          63.8460   81.4510   12.9741 N.3     1  UNL1       -0.2937
     24 H          64.2852   81.0884   12.1279 H       1  UNL1        0.1236
     25 C          61.5343   81.2357   14.1403 C.3     1  UNL1        0.0185
     26 C          62.4215   80.9814   12.9577 C.3     1  UNL1        0.0689
@<TRIPOS>BOND
     1    25    26    1
     2    26    23    1
     3    23    22    1
     4    22     1    1
     5     1     2   ar
     6     2     3   ar
     7     3     9    1
     8     9    11    1
     9    11    12   ar
    10    12    13   ar
    11    13    14   ar
    12    14    15   ar
    13    15    16   ar
    14    16    17   ar
    15    17    18    1
    16    17    19   ar
    17    19    20   ar
    18    20    21   ar
    19     3     4   ar
    20     4     5   ar
    21     5     6   ar
    22     6     7    1
    23     6     1   ar
    24    21    11   ar
    25    21    15   ar
    26    23    24    1
    27     9    10    1
    28     7     8    1
@<TRIPOS>MOLECULE
*****
 26 28 0 0 0
SMALL
GASTEIGER

@<TRIPOS>ATOM
      1 C          64.1944   90.3191   13.1526 C.ar    1  UNL1        0.0286
      2 C          63.3721   89.0774   12.9735 C.ar    1  UNL1        0.0147
      3 C          62.5860   88.8738   11.7123 C.ar    1  UNL1        0.0482
      4 C          62.6221   89.9120   10.6302 C.ar    1  UNL1        0.0177
      5 C          63.4444   91.1537   10.8093 C.ar    1  UNL1        0.0376
      6 C          64.2305   91.3572   12.0705 C.ar    1  UNL1        0.1310
      7 O          65.0528   92.5989   12.2496 O.3     1  UNL1       -0.5058
      8 H          65.0754   93.2474   11.5736 H       1  UNL1        0.2922
      9 N          61.7638   87.6321   11.5333 N.pl3   1  UNL1       -0.3125
     10 H          60.8816   87.5595   11.9643 H       1  UNL1        0.1522
     11 C          62.2856   86.5010   10.6975 C.ar    1  UNL1        0.0513
     12 C          62.3816   86.6512    9.2081 C.ar    1  UNL1        0.0353
     13 C          62.9035   85.5202    8.3725 C.ar    1  UNL1        0.1001
     14 N          63.3293   84.2390    9.0261 N.ar    1  UNL1       -0.2437
     15 C          63.2333   84.0888   10.5154 C.ar    1  UNL1        0.0833
     16 C          63.6591   82.8076   11.1691 C.ar    1  UNL1        0.0305
     17 C          63.5630   82.6575   12.6584 C.ar    1  UNL1        0.0592
     18 CL         63.9888   81.3763   13.3121 Cl      1  UNL1       -0.0822
     19 C          63.0412   83.7885   13.4942 C.ar    1  UNL1        0.0115
     20 C          62.6154   85.0697   12.8406 C.ar    1  UNL1        0.0036
     21 C          62.7114   85.2199   11.3511 C.ar    1  UNL1        0.0312
     22 C          64.9805   90.5226   14.4138 C.3     1  UNL1        0.0987
     23 N          65.0013   91.8685   15.0757 N.3     1  UNL1       -0.2937
     24 H          64.6552   92.5393   14.3897 H       1  UNL1        0.1236
     25 C          67.5991   91.9049   15.0936 C.3     1  UNL1        0.0185
     26 C          66.2890   92.4214   15.6105 C.3     1  UNL1        0.0689
@<TRIPOS>BOND
     1    25    26    1
     2    26    23    1
     3    23    22    1
     4    22     1    1
     5     1     2   ar
     6     2     3   ar
     7     3     9    1
     8     9    11    1
     9    11    12   ar
    10    12    13   ar
    11    13    14   ar
    12    14    15   ar
    13    15    16   ar
    14    16    17   ar
    15    17    18    1
    16    17    19   ar
    17    19    20   ar
    18    20    21   ar
    19     3     4   ar
    20     4     5   ar
    21     5     6   ar
    22     6     7    1
    23     6     1   ar
    24    21    11   ar
    25    21    15   ar
    26    23    24    1
    27     9    10    1
    28     7     8    1
@<TRIPOS>MOLECULE
*****
 26 28 0 0 0
SMALL
GASTEIGER

@<TRIPOS>ATOM
      1 C          65.4113   92.3468   12.1505 C.ar    1  UNL1        0.0286
      2 C          64.1093   91.6100   12.0420 C.ar    1  UNL1        0.0147
      3 C          63.7063   90.6378   13.1108 C.ar    1  UNL1        0.0482
      4 C          64.6054   90.4025   14.2883 C.ar    1  UNL1        0.0177
      5 C          65.9074   91.1393   14.3968 C.ar    1  UNL1        0.0376
      6 C          66.3104   92.1115   13.3279 C.ar    1  UNL1        0.1310
      7 O          67.6124   92.8483   13.4364 O.3     1  UNL1       -0.5058
      8 H          68.1740   92.7013   14.1719 H       1  UNL1        0.2922
      9 N          62.4043   89.9010   13.0023 N.pl3   1  UNL1       -0.3125
     10 H          61.7952   89.8614   13.7748 H       1  UNL1        0.1522
     11 C          62.0303   89.2244   11.7168 C.ar    1  UNL1        0.0513
     12 C          61.3700   90.0079   10.6213 C.ar    1  UNL1        0.0353
     13 C          60.9961   89.3314    9.3359 C.ar    1  UNL1        0.1001
     14 N          61.2824   87.8712    9.1460 N.ar    1  UNL1       -0.2437
     15 C          61.9426   87.0877   10.2415 C.ar    1  UNL1        0.0833
     16 C          62.2289   85.6276   10.0515 C.ar    1  UNL1        0.0305
     17 C          62.8891   84.8440   11.1470 C.ar    1  UNL1        0.0592
     18 CL         63.1754   83.3839   10.9570 Cl      1  UNL1       -0.0822
     19 C          63.2631   85.5206   12.4325 C.ar    1  UNL1        0.0115
     20 C          62.9768   86.9807   12.6224 C.ar    1  UNL1        0.0036
     21 C          62.3166   87.7643   11.5269 C.ar    1  UNL1        0.0312
     22 C          65.8142   93.3190   11.0816 C.3     1  UNL1        0.0987
     23 N          67.2636   93.5001   10.7402 N.3     1  UNL1       -0.2937
     24 H          67.5289   94.4296   11.0659 H       1  UNL1        0.1236
     25 C          68.6763   92.3153    8.9096 C.3     1  UNL1        0.0185
     26 C          67.7169   93.3952    9.3142 C.3     1  UNL1        0.0689
@<TRIPOS>BOND
     1    25    26    1
     2    26    23    1
     3    23    22    1
     4    22     1    1
     5     1     2   ar
     6     2     3   ar
     7     3     9    1
     8     9    11    1
     9    11    12   ar
    10    12    13   ar
    11    13    14   ar
    12    14    15   ar
    13    15    16   ar
    14    16    17   ar
    15    17    18    1
    16    17    19   ar
    17    19    20   ar
    18    20    21   ar
    19     3     4   ar
    20     4     5   ar
    21     5     6   ar
    22     6     7    1
    23     6     1   ar
    24    21    11   ar
    25    21    15   ar
    26    23    24    1
    27     9    10    1
    28     7     8    1
@<TRIPOS>MOLECULE
*****
 26 28 0 0 0
SMALL
GASTEIGER

@<TRIPOS>ATOM
      1 C          60.9753   86.5024    9.7206 C.ar    1  UNL1        0.0286
      2 C          61.8718   85.7294   10.6419 C.ar    1  UNL1        0.0147
      3 C          62.8753   84.7671   10.0790 C.ar    1  UNL1        0.0482
      4 C          62.9823   84.5776    8.5948 C.ar    1  UNL1        0.0177
      5 C          62.0857   85.3506    7.6736 C.ar    1  UNL1        0.0376
      6 C          61.0822   86.3130    8.2365 C.ar    1  UNL1        0.1310
      7 O          60.1856   87.0859    7.3153 O.3     1  UNL1       -0.5058
      8 H          60.2524   86.9676    6.3882 H       1  UNL1        0.2922
      9 N          63.7719   83.9941   11.0003 N.pl3   1  UNL1       -0.3125
     10 H          64.7343   83.9228   10.8054 H       1  UNL1        0.1522
     11 C          63.2021   83.3298   12.2186 C.ar    1  UNL1        0.0513
     12 C          62.6100   81.9555   12.1157 C.ar    1  UNL1        0.0353
     13 C          62.0402   81.2913   13.3339 C.ar    1  UNL1        0.1001
     14 N          62.0627   82.0013   14.6550 N.ar    1  UNL1       -0.2437
     15 C          62.6549   83.3756   14.7579 C.ar    1  UNL1        0.0833
     16 C          62.6774   84.0856   16.0790 C.ar    1  UNL1        0.0305
     17 C          63.2696   85.4598   16.1819 C.ar    1  UNL1        0.0592
     18 CL         63.2921   86.1699   17.5031 Cl      1  UNL1       -0.0822
     19 C          63.8394   86.1242   14.9637 C.ar    1  UNL1        0.0115
     20 C          63.8169   85.4142   13.6425 C.ar    1  UNL1        0.0036
     21 C          63.2246   84.0398   13.5397 C.ar    1  UNL1        0.0312
     22 C          59.9717   87.4647   10.2836 C.3     1  UNL1        0.0987
     23 N          60.1197   87.9655   11.6897 N.3     1  UNL1       -0.2937
     24 H          59.7913   87.2202   12.3038 H       1  UNL1        0.1236
     25 C          59.6046   90.4875   11.3375 C.3     1  UNL1        0.0185
     26 C          59.4167   89.2198   12.1170 C.3     1  UNL1        0.0689
@<TRIPOS>BOND
     1    25    26    1
     2    26    23    1
     3    23    22    1
     4    22     1    1
     5     1     2   ar
     6     2     3   ar
     7     3     9    1
     8     9    11    1
     9    11    12   ar
    10    12    13   ar
    11    13    14   ar
    12    14    15   ar
    13    15    16   ar
    14    16    17   ar
    15    17    18    1
    16    17    19   ar
    17    19    20   ar
    18    20    21   ar
    19     3     4   ar
    20     4     5   ar
    21     5     6   ar
    22     6     7    1
    23     6     1   ar
    24    21    11   ar
    25    21    15   ar
    26    23    24    1
    27     9    10    1
    28     7     8    1
@<TRIPOS>MOLECULE
*****
 26 28 0 0 0
SMALL
GASTEIGER

@<TRIPOS>ATOM
      1 C          63.9970   86.3860   15.3242 C.ar    1  UNL1        0.0286
      2 C          64.4237   87.6903   14.7186 C.ar    1  UNL1        0.0147
      3 C          64.0226   88.9836   15.3638 C.ar    1  UNL1        0.0482
      4 C          63.1947   88.9727   16.6147 C.ar    1  UNL1        0.0177
      5 C          62.7680   87.6685   17.2203 C.ar    1  UNL1        0.0376
      6 C          63.1692   86.3751   16.5750 C.ar    1  UNL1        0.1310
      7 O          62.7425   85.0708   17.1806 O.3     1  UNL1       -0.5058
      8 H          62.2254   85.0640   17.9620 H       1  UNL1        0.2922
      9 N          64.4493   90.2879   14.7582 N.pl3   1  UNL1       -0.3125
     10 H          64.9430   90.9445   15.3008 H       1  UNL1        0.1522
     11 C          64.1237   90.5919   13.3258 C.ar    1  UNL1        0.0513
     12 C          63.1073   89.7648   12.5959 C.ar    1  UNL1        0.0353
     13 C          62.7818   90.0687   11.1636 C.ar    1  UNL1        0.1001
     14 N          63.4727   91.1998   10.4611 N.ar    1  UNL1       -0.2437
     15 C          64.4891   92.0269   11.1910 C.ar    1  UNL1        0.0833
     16 C          65.1800   93.1579   10.4886 C.ar    1  UNL1        0.0305
     17 C          66.1964   93.9850   11.2185 C.ar    1  UNL1        0.0592
     18 CL         66.8873   95.1160   10.5160 Cl      1  UNL1       -0.0822
     19 C          66.5220   93.6810   12.6509 C.ar    1  UNL1        0.0115
     20 C          65.8311   92.5500   13.3533 C.ar    1  UNL1        0.0036
     21 C          64.8146   91.7229   12.6233 C.ar    1  UNL1        0.0312
     22 C          64.3982   85.0926   14.6790 C.3     1  UNL1        0.0987
     23 N          63.3581   84.2148   14.0484 N.3     1  UNL1       -0.2937
     24 H          63.5931   83.2540   14.2979 H       1  UNL1        0.1236
     25 C          62.5414   85.4410   11.9084 C.3     1  UNL1        0.0185
     26 C          63.1569   84.2393   12.5622 C.3     1  UNL1        0.0689
@<TRIPOS>BOND
     1    25    26    1
     2    26    23    1
     3    23    22    1
     4    22     1    1
     5     1     2   ar
     6     2     3   ar
     7     3     9    1
     8     9    11    1
     9    11    12   ar
    10    12    13   ar
    11    13    14   ar
    12    14    15   ar
    13    15    16   ar
    14    16    17   ar
    15    17    18    1
    16    17    19   ar
    17    19    20   ar
    18    20    21   ar
    19     3     4   ar
    20     4     5   ar
    21     5     6   ar
    22     6     7    1
    23     6     1   ar
    24    21    11   ar
    25    21    15   ar
    26    23    24    1
    27     9    10    1
    28     7     8    1
@<TRIPOS>MOLECULE
*****
 26 28 0 0 0
SMALL
GASTEIGER

@<TRIPOS>ATOM
      1 C          63.9223   86.7114   15.6377 C.ar    1  UNL1        0.0286
      2 C          64.3360   87.6414   14.5359 C.ar    1  UNL1        0.0147
      3 C          64.0627   89.1116   14.6532 C.ar    1  UNL1        0.0482
      4 C          63.3756   89.6518   15.8722 C.ar    1  UNL1        0.0177
      5 C          62.9619   88.7218   16.9740 C.ar    1  UNL1        0.0376
      6 C          63.2352   87.2516   16.8567 C.ar    1  UNL1        0.1310
      7 O          62.8215   86.3216   17.9585 O.3     1  UNL1       -0.5058
      8 H          62.3923   86.6590   18.7200 H       1  UNL1        0.2922
      9 N          64.4764   90.0416   13.5514 N.pl3   1  UNL1       -0.3125
     10 H          64.2430   89.8334   12.6179 H       1  UNL1        0.1522
     11 C          65.2458   91.2887   13.8719 C.ar    1  UNL1        0.0513
     12 C          65.7920   91.4989   15.2530 C.ar    1  UNL1        0.0353
     13 C          66.5613   92.7460   15.5736 C.ar    1  UNL1        0.1001
     14 N          66.7845   93.7830   14.5130 N.ar    1  UNL1       -0.2437
     15 C          66.2383   93.5728   13.1319 C.ar    1  UNL1        0.0833
     16 C          66.4615   94.6098   12.0713 C.ar    1  UNL1        0.0305
     17 C          65.9153   94.3997   10.6902 C.ar    1  UNL1        0.0592
     18 CL         66.1385   95.4367    9.6296 Cl      1  UNL1       -0.0822
     19 C          65.1460   93.1525   10.3696 C.ar    1  UNL1        0.0115
     20 C          64.9228   92.1155   11.4302 C.ar    1  UNL1        0.0036
     21 C          65.4690   92.3257   12.8114 C.ar    1  UNL1        0.0312
     22 C          64.1957   85.2411   15.5204 C.3     1  UNL1        0.0987
     23 N          63.0559   84.2665   15.4886 N.3     1  UNL1       -0.2937
     24 H          63.3358   83.4675   16.0574 H       1  UNL1        0.1236
     25 C          62.9045   84.4305   12.9001 C.3     1  UNL1        0.0185
     26 C          62.5746   83.7179   14.1782 C.3     1  UNL1        0.0689
@<TRIPOS>BOND
     1    25    26    1
     2    26    23    1
     3    23    22    1
     4    22     1    1
     5     1     2   ar
     6     2     3   ar
     7     3     9    1
     8     9    11    1
     9    11    12   ar
    10    12    13   ar
    11    13    14   ar
    12    14    15   ar
    13    15    16   ar
    14    16    17   ar
    15    17    18    1
    16    17    19   ar
    17    19    20   ar
    18    20    21   ar
    19     3     4   ar
    20     4     5   ar
    21     5     6   ar
    22     6     7    1
    23     6     1   ar
    24    21    11   ar
    25    21    15   ar
    26    23    24    1
    27     9    10    1
    28     7     8    1
@<TRIPOS>MOLECULE
*****
 26 28 0 0 0
SMALL
GASTEIGER

@<TRIPOS>ATOM
      1 C          62.3175   87.2675   11.1703 C.ar    1  UNL1        0.0286
      2 C          62.7933   88.4453   11.9681 C.ar    1  UNL1        0.0147
      3 C          62.4613   89.8379   11.5206 C.ar    1  UNL1        0.0482
      4 C          61.6533   90.0528   10.2751 C.ar    1  UNL1        0.0177
      5 C          61.1774   88.8751    9.4773 C.ar    1  UNL1        0.0376
      6 C          61.5096   87.4824    9.9249 C.ar    1  UNL1        0.1310
      7 O          61.0337   86.3047    9.1270 O.3     1  UNL1       -0.5058
      8 H          60.5290   86.4390    8.3491 H       1  UNL1        0.2922
      9 N          62.9371   91.0156   12.3184 N.pl3   1  UNL1       -0.3125
     10 H          62.3764   91.3794   13.0412 H       1  UNL1        0.1522
     11 C          64.2673   91.6389   12.0150 C.ar    1  UNL1        0.0513
     12 C          64.5745   92.1117   10.6250 C.ar    1  UNL1        0.0353
     13 C          65.9046   92.7350   10.3216 C.ar    1  UNL1        0.1001
     14 N          66.9277   92.8855   11.4082 N.ar    1  UNL1       -0.2437
     15 C          66.6206   92.4127   12.7982 C.ar    1  UNL1        0.0833
     16 C          67.6436   92.5633   13.8848 C.ar    1  UNL1        0.0305
     17 C          67.3365   92.0905   15.2748 C.ar    1  UNL1        0.0592
     18 CL         68.3595   92.2410   16.3614 Cl      1  UNL1       -0.0822
     19 C          66.0063   91.4672   15.5783 C.ar    1  UNL1        0.0115
     20 C          64.9832   91.3166   14.4916 C.ar    1  UNL1        0.0036
     21 C          65.2904   91.7894   13.1016 C.ar    1  UNL1        0.0312
     22 C          62.6496   85.8749   11.6179 C.3     1  UNL1        0.0987
     23 N          62.5848   85.5195   13.0737 N.3     1  UNL1       -0.2937
     24 H          62.0844   86.2764   13.5396 H       1  UNL1        0.1236
     25 C          64.4028   86.3889   14.7135 C.3     1  UNL1        0.0185
     26 C          63.8497   85.2956   13.8480 C.3     1  UNL1        0.0689
@<TRIPOS>BOND
     1    25    26    1
     2    26    23    1
     3    23    22    1
     4    22     1    1
     5     1     2   ar
     6     2     3   ar
     7     3     9    1
     8     9    11    1
     9    11    12   ar
    10    12    13   ar
    11    13    14   ar
    12    14    15   ar
    13    15    16   ar
    14    16    17   ar
    15    17    18    1
    16    17    19   ar
    17    19    20   ar
    18    20    21   ar
    19     3     4   ar
    20     4     5   ar
    21     5     6   ar
    22     6     7    1
    23     6     1   ar
    24    21    11   ar
    25    21    15   ar
    26    23    24    1
    27     9    10    1
    28     7     8    1
@<TRIPOS>MOLECULE
*****
 26 28 0 0 0
SMALL
GASTEIGER

@<TRIPOS>ATOM
      1 C          62.8043   83.6395   13.4044 C.ar    1  UNL1        0.0286
      2 C          62.6371   84.7516   12.4118 C.ar    1  UNL1        0.0147
      3 C          63.1905   86.1133   12.7108 C.ar    1  UNL1        0.0482
      4 C          63.9111   86.3630   14.0025 C.ar    1  UNL1        0.0177
      5 C          64.0783   85.2510   14.9952 C.ar    1  UNL1        0.0376
      6 C          63.5248   83.8892   14.6961 C.ar    1  UNL1        0.1310
      7 O          63.6920   82.7771   15.6888 O.3     1  UNL1       -0.5058
      8 H          64.1421   82.9331   16.4956 H       1  UNL1        0.2922
      9 N          63.0233   87.2254   11.7181 N.pl3   1  UNL1       -0.3125
     10 H          63.7132   87.9234   11.6401 H       1  UNL1        0.1522
     11 C          61.8050   87.2739   10.8443 C.ar    1  UNL1        0.0513
     12 C          60.6143   88.0848   11.2620 C.ar    1  UNL1        0.0353
     13 C          59.3961   88.1333   10.3882 C.ar    1  UNL1        0.1001
     14 N          59.3686   87.3708    9.0967 N.ar    1  UNL1       -0.2437
     15 C          60.5593   86.5598    8.6791 C.ar    1  UNL1        0.0833
     16 C          60.5318   85.7973    7.3876 C.ar    1  UNL1        0.0305
     17 C          61.7225   84.9864    6.9700 C.ar    1  UNL1        0.0592
     18 CL         61.6950   84.2239    5.6785 Cl      1  UNL1       -0.0822
     19 C          62.9408   84.9379    7.8438 C.ar    1  UNL1        0.0115
     20 C          62.9683   85.7004    9.1352 C.ar    1  UNL1        0.0036
     21 C          61.7775   86.5114    9.5529 C.ar    1  UNL1        0.0312
     22 C          62.2509   82.2777   13.1054 C.3     1  UNL1        0.0987
     23 N          63.0955   81.2654   12.3901 N.3     1  UNL1       -0.2937
     24 H          64.0385   81.3473   12.7702 H       1  UNL1        0.1236
     25 C          64.1636   82.2981   10.2586 C.3     1  UNL1        0.0185
     26 C          63.2248   81.3174   10.8966 C.3     1  UNL1        0.0689
@<TRIPOS>BOND
     1    25    26    1
     2    26    23    1
     3    23    22    1
     4    22     1    1
     5     1     2   ar
     6     2     3   ar
     7     3     9    1
     8     9    11    1
     9    11    12   ar
    10    12    13   ar
    11    13    14   ar
    12    14    15   ar
    13    15    16   ar
    14    16    17   ar
    15    17    18    1
    16    17    19   ar
    17    19    20   ar
    18    20    21   ar
    19     3     4   ar
    20     4     5   ar
    21     5     6   ar
    22     6     7    1
    23     6     1   ar
    24    21    11   ar
    25    21    15   ar
    26    23    24    1
    27     9    10    1
    28     7     8    1
@<TRIPOS>MOLECULE
*****
 26 28 0 0 0
SMALL
GASTEIGER

@<TRIPOS>ATOM
      1 C          64.1945   86.9753   14.9765 C.ar    1  UNL1        0.0286
      2 C          64.0096   88.3441   14.3915 C.ar    1  UNL1        0.0147
      3 C          63.3497   89.4221   15.1993 C.ar    1  UNL1        0.0482
      4 C          62.8747   89.1313   16.5921 C.ar    1  UNL1        0.0177
      5 C          63.0595   87.7625   17.1771 C.ar    1  UNL1        0.0376
      6 C          63.7194   86.6845   16.3692 C.ar    1  UNL1        0.1310
      7 O          63.9043   85.3157   16.9542 O.3     1  UNL1       -0.5058
      8 H          63.6076   85.1340   17.8242 H       1  UNL1        0.2922
      9 N          63.1649   90.7909   14.6143 N.pl3   1  UNL1       -0.3125
     10 H          62.3636   91.3175   14.8376 H       1  UNL1        0.1522
     11 C          64.2009   91.3573   13.6891 C.ar    1  UNL1        0.0513
     12 C          63.9920   91.3012   12.2048 C.ar    1  UNL1        0.0353
     13 C          65.0280   91.8675   11.2797 C.ar    1  UNL1        0.1001
     14 N          66.2729   92.4900   11.8389 N.ar    1  UNL1       -0.2437
     15 C          66.4818   92.5462   13.3232 C.ar    1  UNL1        0.0833
     16 C          67.7267   93.1687   13.8823 C.ar    1  UNL1        0.0305
     17 C          67.9356   93.2248   15.3666 C.ar    1  UNL1        0.0592
     18 CL         69.1805   93.8473   15.9258 Cl      1  UNL1       -0.0822
     19 C          66.8996   92.6584   16.2918 C.ar    1  UNL1        0.0115
     20 C          65.6547   92.0359   15.7327 C.ar    1  UNL1        0.0036
     21 C          65.4458   91.9798   14.2483 C.ar    1  UNL1        0.0312
     22 C          64.8544   85.8973   14.1687 C.3     1  UNL1        0.0987
     23 N          64.2769   84.5131   14.1514 N.3     1  UNL1       -0.2937
     24 H          65.0568   83.8704   14.0135 H       1  UNL1        0.1236
     25 C          62.7135   85.1882   12.1893 C.3     1  UNL1        0.0185
     26 C          63.2317   84.1491   13.1390 C.3     1  UNL1        0.0689
@<TRIPOS>BOND
     1    25    26    1
     2    26    23    1
     3    23    22    1
     4    22     1    1
     5     1     2   ar
     6     2     3   ar
     7     3     9    1
     8     9    11    1
     9    11    12   ar
    10    12    13   ar
    11    13    14   ar
    12    14    15   ar
    13    15    16   ar
    14    16    17   ar
    15    17    18    1
    16    17    19   ar
    17    19    20   ar
    18    20    21   ar
    19     3     4   ar
    20     4     5   ar
    21     5     6   ar
    22     6     7    1
    23     6     1   ar
    24    21    11   ar
    25    21    15   ar
    26    23    24    1
    27     9    10    1
    28     7     8    1
