@<TRIPOS>MOLECULE
*****
 51 53 0 0 0
SMALL
GASTEIGER

@<TRIPOS>ATOM
      1 C          61.0675   87.0190    8.0653 C.3     5  UNK5        0.0137
      2 C          61.7086   87.5323    9.3205 C.3     5  UNK5        0.0703
      3 C          61.1711   88.6537    8.4817 C.3     5  UNK5        0.0137
      4 S          61.9569   88.8649    9.9628 S.3     5  UNK5       -0.0819
      5 S          62.4735   89.7697   11.0418 S.3     5  UNK5       -0.0817
      6 C          63.1561   90.0676   12.3440 C.3     5  UNK5        0.0737
      7 C          62.6958   91.3242   11.6664 C.3     5  UNK5        0.0139
      8 C          63.5023   91.2837   13.1510 C.3     5  UNK5        0.0139
      9 C          63.8694   89.6996   13.6112 C.3     2  UNK2        0.1585
     10 C          64.4721   88.7384   14.5925 C.2     2  UNK2        0.2415
     11 O          64.9887   89.6433   15.6716 O.2     2  UNK2       -0.2733
     12 N          64.8449   87.3747   15.0936 N.am    3  GLY3       -0.2953
     13 CA         64.9140   85.8783   15.0153 C.3     3  GLY3        0.1757
     14 C          64.6656   84.5458   14.3729 C.2     3  GLY3        0.2428
     15 O          65.2683   83.5847   15.3543 O.2     3  GLY3       -0.2732
     16 N          64.1490   83.6410   13.2939 N.am    4  PHE4       -0.2967
     17 CA         63.4665   83.3430   11.9918 C.3     4  PHE4        0.1530
     18 C          62.7532   83.7110   10.7246 C.2     4  PHE4        0.2409
     19 O          62.5048   82.3785   10.0823 O.2     4  PHE4       -0.2733
     20 N          62.1504   84.6722    9.7432 N.am    5  UNK5       -0.2991
     21 C          61.7776   86.0359    9.2421 C.3     5  UNK5        0.1180
     22 H          65.2929   87.5702   15.9482 H       3  GLY3        0.1499
     23 H          64.3937   82.7459   13.6228 H       4  PHE4        0.1499
     24 H          61.8114   84.0783    9.0350 H       5  UNK5        0.1498
     25 N          64.1177   91.0322   14.2535 N.am    2  UNK2       -0.2966
     26 C          65.5230   91.5001   14.4907 C.2     1  TYR1        0.2372
     27 O          66.6799   90.6355   14.0855 O.2     1  TYR1       -0.2737
     28 H          63.3585   91.5996   14.5194 H       2  UNK2        0.1499
     29 CA         65.7714   92.8327   15.1330 C.3     1  TYR1        0.1327
     30 N          65.1354   93.1599   16.4514 N.3     1  TYR1       -0.3148
     31 H1         65.4105   94.0994   16.7378 H       1  TYR1        0.1192
     32 H2         65.4426   92.4868   17.1535 H       1  TYR1        0.1192
     33 CB         66.6558   93.8380   14.4568 C.3     1  TYR1        0.0512
     34 CG         66.5847   94.0193   12.9695 C.ar    1  TYR1       -0.0201
     35 CD1        66.7997   92.8462   12.0599 C.ar    1  TYR1       -0.0011
     36 CE1        66.7286   93.0275   10.5726 C.ar    1  TYR1        0.0363
     37 CZ         66.4424   94.3819    9.9950 C.ar    1  TYR1        0.1337
     38 OH         66.3713   94.5631    8.5077 O.3     1  TYR1       -0.5055
     39 CE2        66.2274   95.5550   10.9046 C.ar    1  TYR1        0.0363
     40 CD2        66.2985   95.3737   12.3919 C.ar    1  TYR1       -0.0011
     41 HH         66.5057   93.8303    7.9395 H       1  TYR1        0.2922
     42 C          61.0951   85.7380    7.9401 C.2     5  UNK5        0.0690
     43 O          61.8877   85.2088    6.7817 O.co2   5  UNK5       -0.5475
     44 O          59.6200   85.9693    7.7964 O.co2   5  UNK5       -0.5475
     45 CB         63.5355   81.8466   11.9135 C.3     4  PHE4        0.0553
     46 CG         62.5618   81.0093   12.6884 C.ar    4  PHE4       -0.0200
     47 CD1        62.7177   79.5178   12.7244 C.ar    4  PHE4       -0.0042
     48 CE1        61.7439   78.6805   13.4995 C.ar    4  PHE4       -0.0003
     49 CZ         60.6142   79.3346   14.2385 C.ar    4  PHE4       -0.0000
     50 CE2        60.4584   80.8260   14.2024 C.ar    4  PHE4       -0.0003
     51 CD2        61.4322   81.6634   13.4274 C.ar    4  PHE4       -0.0042
@<TRIPOS>UNITY_ATOM_ATTR
43 1
charge -1
@<TRIPOS>BOND
     1     1     2    1
     2     2     3    1
     3     2     4    1
     4     4     5    1
     5     5     6    1
     6     6     7    1
     7     6     8    1
     8     6     9    1
     9     9    25    1
    10    25    26   am
    11    26    27    2
    12    26    29    1
    13    29    30    1
    14    29    33    1
    15    33    34    1
    16    34    35   ar
    17    35    36   ar
    18    36    37   ar
    19    37    38    1
    20    37    39   ar
    21    39    40   ar
    22     9    10    1
    23    10    11    2
    24    10    12   am
    25    12    13    1
    26    13    14    1
    27    14    15    2
    28    14    16   am
    29    16    17    1
    30    17    45    1
    31    45    46    1
    32    46    47   ar
    33    47    48   ar
    34    48    49   ar
    35    49    50   ar
    36    50    51   ar
    37    17    18    1
    38    18    19    2
    39    18    20   am
    40    20    21    1
    41    21    42    1
    42    42    43   ar
    43    42    44   ar
    44    21     2    1
    45    40    34   ar
    46    51    46   ar
    47    25    28    1
    48    30    31    1
    49    30    32    1
    50    38    41    1
    51    12    22    1
    52    16    23    1
    53    20    24    1
@<TRIPOS>MOLECULE
*****
 51 53 0 0 0
SMALL
GASTEIGER

@<TRIPOS>ATOM
      1 C          60.6724   87.5852    8.4966 C.3     5  UNK5        0.0137
      2 C          61.4953   88.2058    9.5864 C.3     5  UNK5        0.0703
      3 C          61.1125   89.2162    8.5460 C.3     5  UNK5        0.0137
      4 S          62.0385   89.5645    9.9160 S.3     5  UNK5       -0.0819
      5 S          62.7989   90.5492   10.7541 S.3     5  UNK5       -0.0817
      6 C          63.6258   90.9647   11.9346 C.3     5  UNK5        0.0737
      7 C          63.3566   92.1222   11.0194 C.3     5  UNK5        0.0139
      8 C          64.2560   92.2260   12.4464 C.3     5  UNK5        0.0139
      9 C          64.3555   90.7288   13.2237 C.3     2  UNK2        0.1585
     10 C          64.8435   89.8880   14.3662 C.2     2  UNK2        0.2415
     11 O          65.6038   90.8728   15.2042 O.2     2  UNK2       -0.2733
     12 N          64.9930   88.6092   15.1357 N.am    3  GLY3       -0.2953
     13 CA         64.7746   87.1454   15.3798 C.3     3  GLY3        0.1757
     14 C          64.2314   85.7866   15.0502 C.2     3  GLY3        0.2428
     15 O          64.7193   84.9460   16.1926 O.2     3  GLY3       -0.2732
     16 N          63.4711   84.8020   14.2122 N.am    4  PHE4       -0.2967
     17 CA         62.6441   84.3864   13.0316 C.3     4  PHE4        0.1530
     18 C          61.9144   84.6224   11.7425 C.2     4  PHE4        0.2409
     19 O          61.3712   83.2636   11.4129 O.2     4  PHE4       -0.2733
     20 N          61.4264   85.4631   10.6000 N.am    5  UNK5       -0.2991
     21 C          61.2769   86.7420    9.8306 C.3     5  UNK5        0.1180
     22 H          65.5358   88.8819   15.9105 H       3  GLY3        0.1499
     23 H          63.5692   83.9626   14.7172 H       4  PHE4        0.1499
     24 H          60.9274   84.8169   10.0500 H       5  UNK5        0.1498
     25 N          64.8987   92.0876   13.5533 N.am    2  UNK2       -0.2966
     26 C          66.3630   92.3694   13.3912 C.2     1  TYR1        0.2372
     27 O          67.2842   91.2925   12.8994 O.2     1  TYR1       -0.2737
     28 H          64.2942   92.7944   13.8761 H       2  UNK2        0.1499
     29 CA         66.9062   93.7282   13.7208 C.3     1  TYR1        0.1327
     30 N          68.0486   93.8660   14.6830 N.3     1  TYR1       -0.3148
     31 H1         68.2868   94.8521   14.7890 H       1  TYR1        0.1192
     32 H2         68.8573   93.3573   14.3258 H       1  TYR1        0.1192
     33 CB         66.3070   94.9492   13.0881 C.3     1  TYR1        0.0512
     34 CG         66.3297   95.1090   11.5968 C.ar    1  TYR1       -0.0201
     35 CD1        65.7215   96.3251   10.9636 C.ar    1  TYR1       -0.0011
     36 CE1        65.7442   96.4849    9.4723 C.ar    1  TYR1        0.0363
     37 CZ         66.3750   95.4285    8.6143 C.ar    1  TYR1        0.1337
     38 OH         66.3977   95.5884    7.1230 O.3     1  TYR1       -0.5055
     39 CE2        66.9832   94.2124    9.2476 C.ar    1  TYR1        0.0363
     40 CD2        66.9605   94.0526   10.7389 C.ar    1  TYR1       -0.0011
     41 HH         66.0178   96.3481    6.7275 H       1  TYR1        0.2922
     42 C          60.4500   86.3265    8.6501 C.2     5  UNK5        0.0690
     43 O          58.9791   86.6195    8.6243 O.co2   5  UNK5       -0.5475
     44 O          61.0940   85.6179    7.4954 O.co2   5  UNK5       -0.5475
     45 CB         62.4257   82.9226   13.2758 C.3     4  PHE4        0.0553
     46 CG         62.7792   81.9242   12.2137 C.ar    4  PHE4       -0.0200
     47 CD1        62.3382   80.4969   12.3494 C.ar    4  PHE4       -0.0042
     48 CE1        62.6918   79.4985   11.2872 C.ar    4  PHE4       -0.0003
     49 CZ         63.4864   79.9273   10.0894 C.ar    4  PHE4       -0.0000
     50 CE2        63.9274   81.3545    9.9538 C.ar    4  PHE4       -0.0003
     51 CD2        63.5738   82.3530   11.0159 C.ar    4  PHE4       -0.0042
@<TRIPOS>UNITY_ATOM_ATTR
43 1
charge -1
@<TRIPOS>BOND
     1     1     2    1
     2     2     3    1
     3     2     4    1
     4     4     5    1
     5     5     6    1
     6     6     7    1
     7     6     8    1
     8     6     9    1
     9     9    25    1
    10    25    26   am
    11    26    27    2
    12    26    29    1
    13    29    30    1
    14    29    33    1
    15    33    34    1
    16    34    35   ar
    17    35    36   ar
    18    36    37   ar
    19    37    38    1
    20    37    39   ar
    21    39    40   ar
    22     9    10    1
    23    10    11    2
    24    10    12   am
    25    12    13    1
    26    13    14    1
    27    14    15    2
    28    14    16   am
    29    16    17    1
    30    17    45    1
    31    45    46    1
    32    46    47   ar
    33    47    48   ar
    34    48    49   ar
    35    49    50   ar
    36    50    51   ar
    37    17    18    1
    38    18    19    2
    39    18    20   am
    40    20    21    1
    41    21    42    1
    42    42    43   ar
    43    42    44   ar
    44    21     2    1
    45    40    34   ar
    46    51    46   ar
    47    25    28    1
    48    30    31    1
    49    30    32    1
    50    38    41    1
    51    12    22    1
    52    16    23    1
    53    20    24    1
@<TRIPOS>MOLECULE
*****
 51 53 0 0 0
SMALL
GASTEIGER

@<TRIPOS>ATOM
      1 C          62.7366   96.0351   -5.5963 C.3     5  UNK5        0.0137
      2 C          62.2740   95.2628   -4.3965 C.3     5  UNK5        0.0703
      3 C          63.7712   95.3272   -4.4628 C.3     5  UNK5        0.0137
      4 S          62.9053   94.5375   -3.2452 S.3     5  UNK5       -0.0819
      5 S          62.8837   93.7306   -1.9810 S.3     5  UNK5       -0.0817
      6 C          62.2136   93.0017   -0.8541 C.3     5  UNK5        0.0737
      7 C          63.7075   92.9455   -0.7316 C.3     5  UNK5        0.0139
      8 C          62.6351   92.2318    0.3623 C.3     5  UNK5        0.0139
      9 C          61.0276   92.4954   -0.0879 C.3     2  UNK2        0.1585
     10 C          59.5606   92.3119    0.1659 C.2     2  UNK2        0.2415
     11 O          59.5391   91.5049    1.4302 O.2     2  UNK2       -0.2733
     12 N          58.1033   92.4875   -0.1429 N.am    3  GLY3       -0.2953
     13 CA         56.9442   92.9874   -0.9531 C.3     3  GLY3        0.1757
     14 C          56.3130   93.7127   -2.1044 C.2     3  GLY3        0.2428
     15 O          54.8461   93.5292   -1.8506 O.2     3  GLY3       -0.2732
     16 N          56.3345   94.5196   -3.3686 N.am    4  PHE4       -0.2967
     17 CA         57.0047   95.2485   -4.4955 C.3     4  PHE4        0.1530
     18 C          58.1906   95.7548   -5.2617 C.2     4  PHE4        0.2409
     19 O          57.5594   96.4801   -6.4130 O.2     4  PHE4       -0.2733
     20 N          59.6577   95.9384   -5.5156 N.am    5  UNK5       -0.2991
     21 C          61.1149   95.7628   -5.2068 C.3     5  UNK5        0.1180
     22 H          57.6635   92.0091    0.5967 H       3  GLY3        0.1499
     23 H          55.3780   94.6349   -3.5713 H       4  PHE4        0.1499
     24 H          59.6718   96.4680   -6.3453 H       5  UNK5        0.1498
     25 N          61.6589   91.7701    1.0634 N.am    2  UNK2       -0.2966
     26 C          61.7629   92.4364    2.4032 C.2     1  TYR1        0.2372
     27 O          61.2357   93.8280    2.5918 O.2     1  TYR1       -0.2737
     28 H          62.0049   90.8568    0.9397 H       2  UNK2        0.1499
     29 CA         62.3942   91.7111    3.5545 C.3     1  TYR1        0.1327
     30 N          63.6831   90.9698    3.3578 N.3     1  TYR1       -0.3148
     31 H1         63.9655   90.5392    4.2384 H       1  TYR1        0.1192
     32 H2         64.4060   91.6203    3.0503 H       1  TYR1        0.1192
     33 CB         61.7364   91.7273    4.9026 C.3     1  TYR1        0.0512
     34 CG         60.2779   91.4006    5.0293 C.ar    1  TYR1       -0.0201
     35 CD1        59.2476   92.3468    4.4880 C.ar    1  TYR1       -0.0011
     36 CE1        57.7891   92.0201    4.6148 C.ar    1  TYR1        0.0363
     37 CZ         57.3610   90.7472    5.2829 C.ar    1  TYR1        0.1337
     38 OH         55.9025   90.4206    5.4097 O.3     1  TYR1       -0.5055
     39 CE2        58.3912   89.8010    5.8242 C.ar    1  TYR1        0.0363
     40 CD2        59.8497   90.1277    5.6974 C.ar    1  TYR1       -0.0011
     41 HH         55.2589   91.0117    5.0715 H       1  TYR1        0.2922
     42 C          61.7850   96.4916   -6.3336 C.2     5  UNK5        0.0690
     43 O          61.0036   96.8560   -7.5610 O.co2   5  UNK5       -0.5475
     44 O          63.2367   96.8560   -6.2330 O.co2   5  UNK5       -0.5475
     45 CB         55.8456   95.7485   -5.3058 C.3     4  PHE4        0.0553
     46 CG         54.5476   96.0816   -4.6319 C.ar    4  PHE4       -0.0200
     47 CD1        54.5384   96.5220   -3.1980 C.ar    4  PHE4       -0.0042
     48 CE1        53.2403   96.8551   -2.5241 C.ar    4  PHE4       -0.0003
     49 CZ         51.9515   96.7479   -3.2840 C.ar    4  PHE4       -0.0000
     50 CE2        51.9608   96.3075   -4.7179 C.ar    4  PHE4       -0.0003
     51 CD2        53.2588   95.9743   -5.3918 C.ar    4  PHE4       -0.0042
@<TRIPOS>UNITY_ATOM_ATTR
43 1
charge -1
@<TRIPOS>BOND
     1     1     2    1
     2     2     3    1
     3     2     4    1
     4     4     5    1
     5     5     6    1
     6     6     7    1
     7     6     8    1
     8     6     9    1
     9     9    25    1
    10    25    26   am
    11    26    27    2
    12    26    29    1
    13    29    30    1
    14    29    33    1
    15    33    34    1
    16    34    35   ar
    17    35    36   ar
    18    36    37   ar
    19    37    38    1
    20    37    39   ar
    21    39    40   ar
    22     9    10    1
    23    10    11    2
    24    10    12   am
    25    12    13    1
    26    13    14    1
    27    14    15    2
    28    14    16   am
    29    16    17    1
    30    17    45    1
    31    45    46    1
    32    46    47   ar
    33    47    48   ar
    34    48    49   ar
    35    49    50   ar
    36    50    51   ar
    37    17    18    1
    38    18    19    2
    39    18    20   am
    40    20    21    1
    41    21    42    1
    42    42    43   ar
    43    42    44   ar
    44    21     2    1
    45    40    34   ar
    46    51    46   ar
    47    25    28    1
    48    30    31    1
    49    30    32    1
    50    38    41    1
    51    12    22    1
    52    16    23    1
    53    20    24    1
