@<TRIPOS>MOLECULE
*****
 41 45 0 0 0
SMALL
GASTEIGER

@<TRIPOS>ATOM
      1 C          62.1675   89.6234   10.5518 C.ar    1  UNL1        0.0208
      2 C          61.0173   90.2166    9.7933 C.ar    1  UNL1        0.1021
      3 N          60.0579   89.3223    9.0654 N.ar    1  UNL1       -0.2090
      4 C          60.2488   87.8347    9.0960 C.ar    1  UNL1        0.2400
      5 C          61.3989   87.2416    9.8545 C.ar    1  UNL1        0.1178
      6 C          62.3582   88.1359   10.5824 C.ar    1  UNL1        0.0221
      7 C          66.2906   92.9688   14.9174 C.ar    1  UNL1        0.2167
      8 N          65.6169   91.8425   15.6436 N.ar    1  UNL1       -0.2182
      9 C          64.6575   90.9481   14.9158 C.ar    1  UNL1        0.0638
     10 C          63.9838   89.8218   15.6421 C.3     1  UNL1        0.0522
     11 C          64.3718   91.1801   13.4616 C.ar    1  UNL1        0.0344
     12 C          63.4125   90.2858   12.7338 C.ar    1  UNL1        0.0029
     13 C          63.1268   90.5177   11.2796 C.ar    1  UNL1        0.0047
     14 C          63.8006   91.6441   10.5533 C.ar    1  UNL1        0.0385
     15 C          64.7599   92.5384   11.2811 C.ar    1  UNL1        0.1561
     16 C          65.0456   92.3064   12.7354 C.ar    1  UNL1        0.1191
     17 N          66.0049   93.2007   13.4632 N.ar    1  UNL1       -0.2107
     18 C          68.7016   93.4951   15.7297 C.3     1  UNL1        0.1108
     19 N          67.2499   93.8631   15.6452 N.pl3   1  UNL1       -0.3013
     20 H          66.9268   94.6917   16.0675 H       1  UNL1        0.1497
     21 O          65.4336   93.6647   10.5549 O.3     1  UNL1       -0.4750
     22 C          66.8385   93.5010   10.0552 C.3     1  UNL1        0.1979
     23 C          67.6010   92.2118    9.9748 C.3     1  UNL1        0.0782
     24 C          68.9613   92.5118    9.4182 C.3     1  UNL1        0.1461
     25 O          69.0394   93.9864    9.1547 O.3     1  UNL1       -0.3498
     26 C          67.7275   94.5978    9.5484 C.3     1  UNL1        0.1855
     27 O          59.2894   86.9404    8.3682 O.3     1  UNL1       -0.4553
     28 C          59.7984   85.9711    7.3427 C.3     1  UNL1        0.2543
     29 N          61.5897   85.7541    9.8851 N.pl3   1  UNL1       -0.2104
     30 H          61.3002   85.2049    9.1211 H       1  UNL1        0.1739
     31 S          62.2215   85.1034   11.0799 S.O2    1  UNL1        0.0759
     32 O          63.1814   84.3832   10.1800 O.2     1  UNL1       -0.1499
     33 O          61.2616   85.8236   11.9798 O.2     1  UNL1       -0.1499
     34 C          62.8533   84.4527   12.2746 C.ar    1  UNL1        0.1526
     35 C          62.7347   82.9704   12.4717 C.ar    1  UNL1        0.0248
     36 C          63.3665   82.3197   13.6664 C.ar    1  UNL1        0.0312
     37 C          64.1169   83.1512   14.6641 C.ar    1  UNL1        0.1425
     38 F          64.7487   82.5005   15.8588 F       1  UNL1       -0.2041
     39 C          64.2355   84.6334   14.4671 C.ar    1  UNL1        0.0606
     40 C          63.6037   85.2842   13.2724 C.ar    1  UNL1        0.1611
     41 F          63.7223   86.7665   13.0754 F       1  UNL1       -0.2027
@<TRIPOS>BOND
     1    18    19    1
     2    19     7    1
     3     7     8   ar
     4     8     9   ar
     5     9    10    1
     6     9    11   ar
     7    11    12   ar
     8    12    13   ar
     9    13     1    1
    10     1     2   ar
    11     2     3   ar
    12     3     4   ar
    13     4    27    1
    14    27    28    1
    15     4     5   ar
    16     5    29    1
    17    29    31    1
    18    31    32    2
    19    31    33    2
    20    31    34    1
    21    34    35   ar
    22    35    36   ar
    23    36    37   ar
    24    37    38    1
    25    37    39   ar
    26    39    40   ar
    27    40    41    1
    28     5     6   ar
    29    13    14   ar
    30    14    15   ar
    31    15    21    1
    32    22    21    1
    33    22    23    1
    34    23    24    1
    35    24    25    1
    36    25    26    1
    37    15    16   ar
    38    16    17   ar
    39    17     7   ar
    40    16    11   ar
    41     6     1   ar
    42    26    22    1
    43    40    34   ar
    44    19    20    1
    45    29    30    1
@<TRIPOS>MOLECULE
*****
 41 45 0 0 0
SMALL
GASTEIGER

@<TRIPOS>ATOM
      1 C          63.7376   89.1578   14.8496 C.ar    1  UNL1        0.0208
      2 C          62.9230   89.6344   16.0155 C.ar    1  UNL1        0.1021
      3 N          62.6188   88.7008   17.1495 N.ar    1  UNL1       -0.2090
      4 C          63.1293   87.2906   17.1175 C.ar    1  UNL1        0.2400
      5 C          63.9439   86.8141   15.9516 C.ar    1  UNL1        0.1178
      6 C          64.2480   87.7477   14.8177 C.ar    1  UNL1        0.0221
      7 C          65.9840   93.9695   10.4848 C.ar    1  UNL1        0.2167
      8 N          66.7095   94.1132   11.7898 N.ar    1  UNL1       -0.2182
      9 C          66.4053   93.1796   12.9237 C.ar    1  UNL1        0.0638
     10 C          67.1308   93.3233   14.2288 C.3     1  UNL1        0.0522
     11 C          65.3757   92.1023   12.7527 C.ar    1  UNL1        0.0344
     12 C          65.0715   91.1687   13.8867 C.ar    1  UNL1        0.0029
     13 C          64.0418   90.0914   13.7156 C.ar    1  UNL1        0.0047
     14 C          63.3163   89.9478   12.4106 C.ar    1  UNL1        0.0385
     15 C          63.6205   90.8814   11.2767 C.ar    1  UNL1        0.1561
     16 C          64.6502   91.9587   11.4477 C.ar    1  UNL1        0.1191
     17 N          64.9544   92.8923   10.3138 N.ar    1  UNL1       -0.2107
     18 C          67.6287   94.8559    8.6794 C.3     1  UNL1        0.1108
     19 N          66.2882   94.9031    9.3509 N.pl3   1  UNL1       -0.3013
     20 H          65.6080   95.5469    9.0473 H       1  UNL1        0.1497
     21 O          62.8950   90.7377    9.9717 O.3     1  UNL1       -0.4750
     22 C          61.8985   89.6321    9.7852 C.3     1  UNL1        0.1979
     23 C          62.2089   88.1656    9.7303 C.3     1  UNL1        0.0782
     24 C          60.9189   87.4260    9.5321 C.3     1  UNL1        0.1461
     25 O          59.8114   88.4355    9.4646 O.3     1  UNL1       -0.3498
     26 C          60.4169   89.7989    9.6211 C.3     1  UNL1        0.1855
     27 O          62.8251   86.3570   18.2514 O.3     1  UNL1       -0.4553
     28 C          62.6534   86.8956   19.6409 C.3     1  UNL1        0.2543
     29 N          64.4543   85.4041   15.9197 N.pl3   1  UNL1       -0.2104
     30 H          65.0003   85.0612   16.6637 H       1  UNL1        0.1739
     31 S          64.1328   84.5163   14.7541 S.O2    1  UNL1        0.0759
     32 O          62.6953   84.4768   15.1806 O.2     1  UNL1       -0.1499
     33 O          65.5703   84.5557   14.3275 O.2     1  UNL1       -0.1499
     34 C          63.8114   83.6285   13.5885 C.ar    1  UNL1        0.1526
     35 C          63.8951   82.1380   13.7354 C.ar    1  UNL1        0.0248
     36 C          63.5737   81.2503   12.5699 C.ar    1  UNL1        0.0312
     37 C          63.1684   81.8529   11.2574 C.ar    1  UNL1        0.1425
     38 F          62.8469   80.9652   10.0919 F       1  UNL1       -0.2041
     39 C          63.0846   83.3433   11.1105 C.ar    1  UNL1        0.0606
     40 C          63.4061   84.2311   12.2761 C.ar    1  UNL1        0.1611
     41 F          63.3223   85.7215   12.1291 F       1  UNL1       -0.2027
@<TRIPOS>BOND
     1    18    19    1
     2    19     7    1
     3     7     8   ar
     4     8     9   ar
     5     9    10    1
     6     9    11   ar
     7    11    12   ar
     8    12    13   ar
     9    13     1    1
    10     1     2   ar
    11     2     3   ar
    12     3     4   ar
    13     4    27    1
    14    27    28    1
    15     4     5   ar
    16     5    29    1
    17    29    31    1
    18    31    32    2
    19    31    33    2
    20    31    34    1
    21    34    35   ar
    22    35    36   ar
    23    36    37   ar
    24    37    38    1
    25    37    39   ar
    26    39    40   ar
    27    40    41    1
    28     5     6   ar
    29    13    14   ar
    30    14    15   ar
    31    15    21    1
    32    22    21    1
    33    22    23    1
    34    23    24    1
    35    24    25    1
    36    25    26    1
    37    15    16   ar
    38    16    17   ar
    39    17     7   ar
    40    16    11   ar
    41     6     1   ar
    42    26    22    1
    43    40    34   ar
    44    19    20    1
    45    29    30    1
@<TRIPOS>MOLECULE
*****
 41 45 0 0 0
SMALL
GASTEIGER

@<TRIPOS>ATOM
      1 C          62.2295   89.6828   11.0952 C.ar    1  UNL1        0.0208
      2 C          61.0986   90.4746   10.5085 C.ar    1  UNL1        0.1021
      3 N          60.2314   89.8689    9.4450 N.ar    1  UNL1       -0.2090
      4 C          60.4950   88.4713    8.9683 C.ar    1  UNL1        0.2400
      5 C          61.6258   87.6795    9.5550 C.ar    1  UNL1        0.1178
      6 C          62.4930   88.2852   10.6185 C.ar    1  UNL1        0.0221
      7 C          66.6757   93.1868   14.9943 C.ar    1  UNL1        0.2167
      8 N          66.7859   93.6621   13.5759 N.ar    1  UNL1       -0.2182
      9 C          65.9186   93.0564   12.5124 C.ar    1  UNL1        0.0638
     10 C          66.0288   93.5318   11.0940 C.3     1  UNL1        0.0522
     11 C          64.9413   91.9753   12.8673 C.ar    1  UNL1        0.0344
     12 C          64.0741   91.3696   11.8038 C.ar    1  UNL1        0.0029
     13 C          63.0967   90.2885   12.1587 C.ar    1  UNL1        0.0047
     14 C          62.9865   89.8131   13.5772 C.ar    1  UNL1        0.0385
     15 C          63.8537   90.4188   14.6407 C.ar    1  UNL1        0.1561
     16 C          64.8311   91.5000   14.2857 C.ar    1  UNL1        0.1191
     17 N          65.6984   92.1057   15.3492 N.ar    1  UNL1       -0.2107
     18 C          69.0262   93.8836   15.8542 C.3     1  UNL1        0.1108
     19 N          67.5429   93.7925   16.0578 N.pl3   1  UNL1       -0.3013
     20 H          67.1386   94.1303   16.8894 H       1  UNL1        0.1497
     21 O          63.7436   89.9435   16.0591 O.3     1  UNL1       -0.4750
     22 C          63.5151   88.4892   16.3471 C.3     1  UNL1        0.1979
     23 C          62.7850   87.9292   17.5318 C.3     1  UNL1        0.0782
     24 C          62.7952   86.4335   17.4180 C.3     1  UNL1        0.1461
     25 O          63.5317   86.0692   16.1630 O.3     1  UNL1       -0.3498
     26 C          63.9766   87.3397   15.5012 C.3     1  UNL1        0.1855
     27 O          59.6278   87.8655    7.9048 O.3     1  UNL1       -0.4553
     28 C          59.0155   88.7380    6.8493 C.3     1  UNL1        0.2543
     29 N          61.8894   86.2819    9.0782 N.pl3   1  UNL1       -0.2104
     30 H          61.7635   86.0537    8.1289 H       1  UNL1        0.1739
     31 S          62.3448   85.2320   10.0480 S.O2    1  UNL1        0.0759
     32 O          63.4489   84.8443    9.1096 O.2     1  UNL1       -0.1499
     33 O          61.2408   85.6197   10.9864 O.2     1  UNL1       -0.1499
     34 C          62.8003   84.1821   11.0176 C.ar    1  UNL1        0.1526
     35 C          62.7512   82.7333   10.6322 C.ar    1  UNL1        0.0248
     36 C          63.2067   81.6834   11.6018 C.ar    1  UNL1        0.0312
     37 C          63.7113   82.0823   12.9569 C.ar    1  UNL1        0.1425
     38 F          64.1667   81.0324   13.9266 F       1  UNL1       -0.2041
     39 C          63.7604   83.5311   13.3424 C.ar    1  UNL1        0.0606
     40 C          63.3049   84.5810   12.3727 C.ar    1  UNL1        0.1611
     41 F          63.3540   86.0298   12.7582 F       1  UNL1       -0.2027
@<TRIPOS>BOND
     1    18    19    1
     2    19     7    1
     3     7     8   ar
     4     8     9   ar
     5     9    10    1
     6     9    11   ar
     7    11    12   ar
     8    12    13   ar
     9    13     1    1
    10     1     2   ar
    11     2     3   ar
    12     3     4   ar
    13     4    27    1
    14    27    28    1
    15     4     5   ar
    16     5    29    1
    17    29    31    1
    18    31    32    2
    19    31    33    2
    20    31    34    1
    21    34    35   ar
    22    35    36   ar
    23    36    37   ar
    24    37    38    1
    25    37    39   ar
    26    39    40   ar
    27    40    41    1
    28     5     6   ar
    29    13    14   ar
    30    14    15   ar
    31    15    21    1
    32    22    21    1
    33    22    23    1
    34    23    24    1
    35    24    25    1
    36    25    26    1
    37    15    16   ar
    38    16    17   ar
    39    17     7   ar
    40    16    11   ar
    41     6     1   ar
    42    26    22    1
    43    40    34   ar
    44    19    20    1
    45    29    30    1
@<TRIPOS>MOLECULE
*****
 41 45 0 0 0
SMALL
GASTEIGER

@<TRIPOS>ATOM
      1 C          62.5277   90.1431   10.9936 C.ar    1  UNL1        0.0208
      2 C          61.2100   90.8139   10.7411 C.ar    1  UNL1        0.1021
      3 N          60.1055   90.0639   10.0572 N.ar    1  UNL1       -0.2090
      4 C          60.3188   88.6432    9.6258 C.ar    1  UNL1        0.2400
      5 C          61.6365   87.9724    9.8783 C.ar    1  UNL1        0.1178
      6 C          62.7409   88.7224   10.5622 C.ar    1  UNL1        0.0221
      7 C          67.0170   93.1716   15.2274 C.ar    1  UNL1        0.2167
      8 N          65.9840   92.4504   16.0414 N.ar    1  UNL1       -0.2182
      9 C          64.8795   91.7005   15.3575 C.ar    1  UNL1        0.0638
     10 C          63.8465   90.9792   16.1716 C.3     1  UNL1        0.0522
     11 C          64.8081   91.6717   13.8595 C.ar    1  UNL1        0.0344
     12 C          63.7036   90.9218   13.1756 C.ar    1  UNL1        0.0029
     13 C          63.6322   90.8930   11.6776 C.ar    1  UNL1        0.0047
     14 C          64.6652   91.6143   10.8634 C.ar    1  UNL1        0.0385
     15 C          65.7696   92.3642   11.5474 C.ar    1  UNL1        0.1561
     16 C          65.8411   92.3929   13.0454 C.ar    1  UNL1        0.1191
     17 N          66.9455   93.1429   13.7294 N.ar    1  UNL1       -0.2107
     18 C          69.5501   93.5261   15.6827 C.3     1  UNL1        0.1108
     19 N          68.1214   93.9216   15.9113 N.pl3   1  UNL1       -0.3013
     20 H          67.9085   94.6734   16.5102 H       1  UNL1        0.1497
     21 O          66.8026   93.0855   10.7333 O.3     1  UNL1       -0.4750
     22 C          66.6176   94.5368   10.4023 C.3     1  UNL1        0.1979
     23 C          67.2434   95.2649    9.2498 C.3     1  UNL1        0.0782
     24 C          66.7868   96.6929    9.3009 C.3     1  UNL1        0.1461
     25 O          65.8789   96.8472   10.4849 O.3     1  UNL1       -0.3498
     26 C          65.7743   95.5146   11.1656 C.3     1  UNL1        0.1855
     27 O          59.2144   87.8932    8.9418 O.3     1  UNL1       -0.4553
     28 C          59.0452   87.9982    7.4551 C.3     1  UNL1        0.2543
     29 N          61.8497   86.5518    9.4469 N.pl3   1  UNL1       -0.2104
     30 H          61.6910   86.2926    8.5105 H       1  UNL1        0.1739
     31 S          62.3049   85.5259   10.4422 S.O2    1  UNL1        0.0759
     32 O          61.3109   86.0494   11.4362 O.2     1  UNL1       -0.1499
     33 O          63.2989   85.0025    9.4482 O.2     1  UNL1       -0.1499
     34 C          62.7600   84.5002   11.4375 C.ar    1  UNL1        0.1526
     35 C          62.5758   83.0401   11.1473 C.ar    1  UNL1        0.0248
     36 C          63.0309   82.0143   12.1426 C.ar    1  UNL1        0.0312
     37 C          63.6703   82.4486   13.4281 C.ar    1  UNL1        0.1425
     38 F          64.1254   81.4228   14.4234 F       1  UNL1       -0.2041
     39 C          63.8545   83.9086   13.7184 C.ar    1  UNL1        0.0606
     40 C          63.3994   84.9345   12.7230 C.ar    1  UNL1        0.1611
     41 F          63.5836   86.3945   13.0133 F       1  UNL1       -0.2027
@<TRIPOS>BOND
     1    18    19    1
     2    19     7    1
     3     7     8   ar
     4     8     9   ar
     5     9    10    1
     6     9    11   ar
     7    11    12   ar
     8    12    13   ar
     9    13     1    1
    10     1     2   ar
    11     2     3   ar
    12     3     4   ar
    13     4    27    1
    14    27    28    1
    15     4     5   ar
    16     5    29    1
    17    29    31    1
    18    31    32    2
    19    31    33    2
    20    31    34    1
    21    34    35   ar
    22    35    36   ar
    23    36    37   ar
    24    37    38    1
    25    37    39   ar
    26    39    40   ar
    27    40    41    1
    28     5     6   ar
    29    13    14   ar
    30    14    15   ar
    31    15    21    1
    32    22    21    1
    33    22    23    1
    34    23    24    1
    35    24    25    1
    36    25    26    1
    37    15    16   ar
    38    16    17   ar
    39    17     7   ar
    40    16    11   ar
    41     6     1   ar
    42    26    22    1
    43    40    34   ar
    44    19    20    1
    45    29    30    1
@<TRIPOS>MOLECULE
*****
 41 45 0 0 0
SMALL
GASTEIGER

@<TRIPOS>ATOM
      1 C          63.7271   89.8307   13.4131 C.ar    1  UNL1        0.0208
      2 C          63.1179   90.0294   14.7695 C.ar    1  UNL1        0.1021
      3 N          63.7366   90.9962   15.7352 N.ar    1  UNL1       -0.2090
      4 C          64.9644   91.7643   15.3446 C.ar    1  UNL1        0.2400
      5 C          65.5735   91.5656   13.9883 C.ar    1  UNL1        0.1178
      6 C          64.9548   90.5988   13.0226 C.ar    1  UNL1        0.0221
      7 C          60.3930   86.4692    8.4298 C.ar    1  UNL1        0.2167
      8 N          60.1522   87.9416    8.2749 N.ar    1  UNL1       -0.2182
      9 C          60.7709   88.9084    9.2406 C.ar    1  UNL1        0.0638
     10 C          60.5301   90.3809    9.0857 C.3     1  UNL1        0.0522
     11 C          61.6303   88.4028   10.3612 C.ar    1  UNL1        0.0344
     12 C          62.2490   89.3696   11.3269 C.ar    1  UNL1        0.0029
     13 C          63.1084   88.8639   12.4474 C.ar    1  UNL1        0.0047
     14 C          63.3492   87.3915   12.6024 C.ar    1  UNL1        0.0385
     15 C          62.7305   86.4247   11.6367 C.ar    1  UNL1        0.1561
     16 C          61.8711   86.9304   10.5160 C.ar    1  UNL1        0.1191
     17 N          61.2524   85.9636    9.5503 N.ar    1  UNL1       -0.2107
     18 C          60.6483   84.6440    6.5985 C.3     1  UNL1        0.1108
     19 N          59.7743   85.5024    7.4641 N.pl3   1  UNL1       -0.3013
     20 H          58.7946   85.4313    7.3984 H       1  UNL1        0.1497
     21 O          62.9713   84.9523   11.7915 O.3     1  UNL1       -0.4750
     22 C          63.2532   84.3769   13.1479 C.3     1  UNL1        0.1979
     23 C          62.2284   84.0071   14.1790 C.3     1  UNL1        0.0782
     24 C          62.9512   83.4720   15.3796 C.3     1  UNL1        0.1461
     25 O          64.4226   83.5112   15.0904 O.3     1  UNL1       -0.3498
     26 C          64.6092   84.0705   13.7111 C.3     1  UNL1        0.1855
     27 O          65.5831   92.7311   16.3103 O.3     1  UNL1       -0.4553
     28 C          67.0758   92.8251   16.4248 C.3     1  UNL1        0.2543
     29 N          66.8013   92.3336   13.5978 N.pl3   1  UNL1       -0.2104
     30 H          67.6202   92.2614   14.1395 H       1  UNL1        0.1739
     31 S          66.7815   93.2118   12.3818 S.O2    1  UNL1        0.0759
     32 O          67.9044   92.4144   11.7876 O.2     1  UNL1       -0.1499
     33 O          65.6585   94.0092   12.9760 O.2     1  UNL1       -0.1499
     34 C          66.7617   94.0899   11.1659 C.ar    1  UNL1        0.1526
     35 C          66.3697   95.5326   11.2889 C.ar    1  UNL1        0.0248
     36 C          66.3499   96.4107   10.0730 C.ar    1  UNL1        0.0312
     37 C          66.7220   95.8462    8.7340 C.ar    1  UNL1        0.1425
     38 F          66.7022   96.7243    7.5181 F       1  UNL1       -0.2041
     39 C          67.1140   94.4036    8.6110 C.ar    1  UNL1        0.0606
     40 C          67.1338   93.5254    9.8269 C.ar    1  UNL1        0.1611
     41 F          67.5258   92.0828    9.7039 F       1  UNL1       -0.2027
@<TRIPOS>BOND
     1    18    19    1
     2    19     7    1
     3     7     8   ar
     4     8     9   ar
     5     9    10    1
     6     9    11   ar
     7    11    12   ar
     8    12    13   ar
     9    13     1    1
    10     1     2   ar
    11     2     3   ar
    12     3     4   ar
    13     4    27    1
    14    27    28    1
    15     4     5   ar
    16     5    29    1
    17    29    31    1
    18    31    32    2
    19    31    33    2
    20    31    34    1
    21    34    35   ar
    22    35    36   ar
    23    36    37   ar
    24    37    38    1
    25    37    39   ar
    26    39    40   ar
    27    40    41    1
    28     5     6   ar
    29    13    14   ar
    30    14    15   ar
    31    15    21    1
    32    22    21    1
    33    22    23    1
    34    23    24    1
    35    24    25    1
    36    25    26    1
    37    15    16   ar
    38    16    17   ar
    39    17     7   ar
    40    16    11   ar
    41     6     1   ar
    42    26    22    1
    43    40    34   ar
    44    19    20    1
    45    29    30    1
