@<TRIPOS>MOLECULE
*****
 33 37 0 0 0
SMALL
GASTEIGER

@<TRIPOS>ATOM
      1 C          61.4760   88.5749   11.2252 C.3     1  UNL1        0.1096
      2 C          60.4435   89.2253   10.3528 C.3     1  UNL1        0.1622
      3 O          59.7442   88.4251    9.2942 O.3     1  UNL1       -0.3502
      4 C          60.0775   86.9745    9.1079 C.3     1  UNL1        0.1637
      5 C          61.1099   86.3241    9.9802 C.3     1  UNL1        0.1257
      6 N          61.8093   87.1243   11.0389 N.am    1  UNL1       -0.2723
      7 C          62.8417   86.4739   11.9112 C.2     1  UNL1        0.2506
      8 O          63.5410   87.2741   12.9697 O.2     1  UNL1       -0.2699
      9 C          63.1750   85.0233   11.7249 C.ar    1  UNL1        0.0729
     10 C          63.3374   84.4625   10.3432 C.ar    1  UNL1        0.0061
     11 C          63.6706   83.0119   10.1569 C.ar    1  UNL1        0.0002
     12 C          63.8414   82.1221   11.3523 C.ar    1  UNL1        0.0016
     13 C          63.6790   82.6829   12.7340 C.ar    1  UNL1        0.0211
     14 C          63.3458   84.1335   12.9203 C.ar    1  UNL1        0.1072
     15 N          63.1834   84.6943   14.3020 N.ar    1  UNL1       -0.1477
     16 N          64.2584   85.3443   15.1217 N.ar    1  UNL1       -0.1447
     17 C          63.6569   85.7552   16.4329 C.ar    1  UNL1        0.1446
     18 C          62.2101   85.3592   16.4236 C.ar    1  UNL1        0.1446
     19 N          61.9175   84.7035   15.1067 N.ar    1  UNL1       -0.1447
     20 C          62.1753   89.3751   12.2837 C.3     1  UNL1        0.0487
     21 C          65.1543   92.5382   11.1131 C.ar    1  UNL1        0.1417
     22 C          64.1046   92.0982   10.1361 C.ar    1  UNL1        0.0367
     23 C          63.1116   91.0438   10.5263 C.ar    1  UNL1       -0.0011
     24 C          63.1683   90.4295   11.8935 C.ar    1  UNL1       -0.0201
     25 C          64.2179   90.8695   12.8705 C.ar    1  UNL1        0.0020
     26 C          65.2109   91.9239   12.4803 C.ar    1  UNL1        0.0727
     27 C          66.2606   92.3639   13.4574 C.ar    1  UNL1        0.2066
     28 N          66.0138   93.0643   14.7607 N.ar    1  UNL1       -0.1828
     29 C          67.3420   93.3140   15.4114 C.ar    1  UNL1        0.3164
     30 O          68.4097   92.7680   14.5103 O.2     1  UNL1       -0.3274
     31 N          67.7413   92.1809   13.3026 N.ar    1  UNL1       -0.0553
     32 C          67.2674   93.2570    9.7835 C.3     1  UNL1        0.2525
     33 O          66.1473   93.5926   10.7228 O.3     1  UNL1       -0.4713
@<TRIPOS>BOND
     1    32    33    1
     2    33    21    1
     3    21    22   ar
     4    22    23   ar
     5    23    24   ar
     6    24    20    1
     7     1    20    1
     8     1     2    1
     9     2     3    1
    10     3     4    1
    11     4     5    1
    12     5     6    1
    13     6     7   am
    14     7     8    2
    15     7     9    1
    16     9    10   ar
    17    10    11   ar
    18    11    12   ar
    19    12    13   ar
    20    13    14   ar
    21    14    15    1
    22    15    16   ar
    23    16    17   ar
    24    17    18   ar
    25    18    19   ar
    26    24    25   ar
    27    25    26   ar
    28    26    27    1
    29    27    28   ar
    30    28    29   ar
    31    29    30   ar
    32    30    31   ar
    33    26    21   ar
    34    31    27   ar
    35     6     1    1
    36    14     9   ar
    37    19    15   ar
@<TRIPOS>MOLECULE
*****
 33 37 0 0 0
SMALL
GASTEIGER

@<TRIPOS>ATOM
      1 C          62.1522   89.5106   11.8795 C.3     1  UNL1        0.1096
      2 C          61.4592   90.5510   11.0504 C.3     1  UNL1        0.1622
      3 O          60.8972   90.1882    9.7079 O.3     1  UNL1       -0.3502
      4 C          61.0280   88.7849    9.1944 C.3     1  UNL1        0.1637
      5 C          61.7210   87.7445   10.0234 C.3     1  UNL1        0.1257
      6 N          62.2831   88.1073   11.3660 N.am    1  UNL1       -0.2723
      7 C          62.9761   87.0669   12.1950 C.2     1  UNL1        0.2506
      8 O          63.5381   87.4297   13.5375 O.2     1  UNL1       -0.2699
      9 C          63.1069   85.6636   11.6815 C.ar    1  UNL1        0.0729
     10 C          63.1360   85.4052   10.2042 C.ar    1  UNL1        0.0061
     11 C          63.2668   84.0019    9.6907 C.ar    1  UNL1        0.0002
     12 C          63.3687   82.8570   10.6545 C.ar    1  UNL1        0.0016
     13 C          63.3396   83.1154   12.1317 C.ar    1  UNL1        0.0211
     14 C          63.2087   84.5187   12.6452 C.ar    1  UNL1        0.1072
     15 N          63.1797   84.7771   14.1226 N.ar    1  UNL1       -0.1477
     16 N          64.3689   85.0612   14.9915 N.ar    1  UNL1       -0.1447
     17 C          63.8806   85.2565   16.3963 C.ar    1  UNL1        0.1446
     18 C          62.3895   85.0930   16.3955 C.ar    1  UNL1        0.1446
     19 N          61.9563   84.7967   14.9903 N.ar    1  UNL1       -0.1447
     20 C          62.7143   89.8734   13.2220 C.3     1  UNL1        0.0487
     21 C          66.6422   92.0513   13.5028 C.ar    1  UNL1        0.1417
     22 C          66.1960   91.1617   14.6250 C.ar    1  UNL1        0.0367
     23 C          64.8867   90.4357   14.5314 C.ar    1  UNL1       -0.0011
     24 C          64.0236   90.5994   13.3156 C.ar    1  UNL1       -0.0201
     25 C          64.4698   91.4890   12.1934 C.ar    1  UNL1        0.0020
     26 C          65.7791   92.2150   12.2870 C.ar    1  UNL1        0.0727
     27 C          66.2253   93.1046   11.1646 C.ar    1  UNL1        0.2066
     28 N          67.4159   92.8790   10.2807 N.ar    1  UNL1       -0.1828
     29 C          67.4856   94.0110    9.2990 C.ar    1  UNL1        0.3164
     30 O          66.3380   94.9364    9.5763 O.2     1  UNL1       -0.3274
     31 N          65.5591   94.3761   10.7293 N.ar    1  UNL1       -0.0553
     32 C          68.7167   92.7806   14.8865 C.3     1  UNL1        0.2525
     33 O          67.9515   92.7773   13.5964 O.3     1  UNL1       -0.4713
@<TRIPOS>BOND
     1    32    33    1
     2    33    21    1
     3    21    22   ar
     4    22    23   ar
     5    23    24   ar
     6    24    20    1
     7     1    20    1
     8     1     2    1
     9     2     3    1
    10     3     4    1
    11     4     5    1
    12     5     6    1
    13     6     7   am
    14     7     8    2
    15     7     9    1
    16     9    10   ar
    17    10    11   ar
    18    11    12   ar
    19    12    13   ar
    20    13    14   ar
    21    14    15    1
    22    15    16   ar
    23    16    17   ar
    24    17    18   ar
    25    18    19   ar
    26    24    25   ar
    27    25    26   ar
    28    26    27    1
    29    27    28   ar
    30    28    29   ar
    31    29    30   ar
    32    30    31   ar
    33    26    21   ar
    34    31    27   ar
    35     6     1    1
    36    14     9   ar
    37    19    15   ar
@<TRIPOS>MOLECULE
*****
 33 37 0 0 0
SMALL
GASTEIGER

@<TRIPOS>ATOM
      1 C          63.2421   88.6616   15.5276 C.3     1  UNL1        0.1096
      2 C          63.0863   88.9476   16.9919 C.3     1  UNL1        0.1622
      3 O          63.0513   87.8173   17.9773 O.3     1  UNL1       -0.3502
      4 C          63.1720   86.4009   17.4985 C.3     1  UNL1        0.1637
      5 C          63.3278   86.1148   16.0343 C.3     1  UNL1        0.1257
      6 N          63.3628   87.2452   15.0488 N.am    1  UNL1       -0.2723
      7 C          63.5186   86.9592   13.5846 C.2     1  UNL1        0.2506
      8 O          63.5536   88.0896   12.5993 O.2     1  UNL1       -0.2699
      9 C          63.6393   85.5428   13.1058 C.ar    1  UNL1        0.0729
     10 C          64.4769   84.5614   13.8708 C.ar    1  UNL1        0.0061
     11 C          64.5976   83.1450   13.3919 C.ar    1  UNL1        0.0002
     12 C          63.8808   82.7100   12.1482 C.ar    1  UNL1        0.0016
     13 C          63.0432   83.6915   11.3833 C.ar    1  UNL1        0.0211
     14 C          62.9225   85.1079   11.8621 C.ar    1  UNL1        0.1072
     15 N          62.0849   86.0894   11.0970 N.ar    1  UNL1       -0.1477
     16 N          60.8548   86.7823   11.6040 N.ar    1  UNL1       -0.1447
     17 C          60.3400   87.6714   10.5111 C.ar    1  UNL1        0.1446
     18 C          61.2519   87.5280    9.3287 C.ar    1  UNL1        0.1446
     19 N          62.3303   86.5503    9.6909 N.ar    1  UNL1       -0.1447
     20 C          63.2771   89.7920   14.5422 C.3     1  UNL1        0.0487
     21 C          66.6829   92.7324   14.6113 C.ar    1  UNL1        0.1417
     22 C          65.9521   92.4013   15.8787 C.ar    1  UNL1        0.0367
     23 C          64.8168   91.4212   15.8556 C.ar    1  UNL1       -0.0011
     24 C          64.4124   90.7721   14.5653 C.ar    1  UNL1       -0.0201
     25 C          65.1432   91.1032   13.2979 C.ar    1  UNL1        0.0020
     26 C          66.2784   92.0834   13.3209 C.ar    1  UNL1        0.0727
     27 C          67.0092   92.4145   12.0535 C.ar    1  UNL1        0.2066
     28 N          66.4749   93.2330   10.9157 N.ar    1  UNL1       -0.1828
     29 C          67.5381   93.3096    9.8604 C.ar    1  UNL1        0.3164
     30 O          68.7296   92.5382   10.3459 O.2     1  UNL1       -0.3274
     31 N          68.4027   91.9851   11.7013 N.ar    1  UNL1       -0.0553
     32 C          68.8709   93.6159   15.6983 C.3     1  UNL1        0.2525
     33 O          67.8181   93.7125   14.6343 O.3     1  UNL1       -0.4713
@<TRIPOS>BOND
     1    32    33    1
     2    33    21    1
     3    21    22   ar
     4    22    23   ar
     5    23    24   ar
     6    24    20    1
     7     1    20    1
     8     1     2    1
     9     2     3    1
    10     3     4    1
    11     4     5    1
    12     5     6    1
    13     6     7   am
    14     7     8    2
    15     7     9    1
    16     9    10   ar
    17    10    11   ar
    18    11    12   ar
    19    12    13   ar
    20    13    14   ar
    21    14    15    1
    22    15    16   ar
    23    16    17   ar
    24    17    18   ar
    25    18    19   ar
    26    24    25   ar
    27    25    26   ar
    28    26    27    1
    29    27    28   ar
    30    28    29   ar
    31    29    30   ar
    32    30    31   ar
    33    26    21   ar
    34    31    27   ar
    35     6     1    1
    36    14     9   ar
    37    19    15   ar
@<TRIPOS>MOLECULE
*****
 33 37 0 0 0
SMALL
GASTEIGER

@<TRIPOS>ATOM
      1 C          62.3157   86.3750   10.2745 C.3     1  UNL1        0.1096
      2 C          62.5157   86.6850    8.8205 C.3     1  UNL1        0.1622
      3 O          63.0080   85.6190    7.8872 O.3     1  UNL1       -0.3502
      4 C          63.3003   84.2429    8.4077 C.3     1  UNL1        0.1637
      5 C          63.1004   83.9329    9.8616 C.3     1  UNL1        0.1257
      6 N          62.6081   84.9990   10.7951 N.am    1  UNL1       -0.2723
      7 C          62.4082   84.6889   12.2490 C.2     1  UNL1        0.2506
      8 O          61.9159   85.7549   13.1823 O.2     1  UNL1       -0.2699
      9 C          62.7005   83.3129   12.7695 C.ar    1  UNL1        0.0729
     10 C          62.5944   82.1274   11.8566 C.ar    1  UNL1        0.0061
     11 C          62.8868   80.7514   12.3771 C.ar    1  UNL1        0.0002
     12 C          63.2853   80.5607   13.8106 C.ar    1  UNL1        0.0016
     13 C          63.3913   81.7461   14.7235 C.ar    1  UNL1        0.0211
     14 C          63.0990   83.1222   14.2029 C.ar    1  UNL1        0.1072
     15 N          63.2051   84.3077   15.1159 N.ar    1  UNL1       -0.1477
     16 N          64.3308   85.2985   15.1472 N.ar    1  UNL1       -0.1447
     17 C          64.0257   86.3136   16.2085 C.ar    1  UNL1        0.1446
     18 C          62.7112   85.9501   16.8332 C.ar    1  UNL1        0.1446
     19 N          62.2041   84.7104   16.1580 N.ar    1  UNL1       -0.1447
     20 C          61.8234   87.4411   11.2079 C.3     1  UNL1        0.0487
     21 C          63.8167   91.4751   11.2678 C.ar    1  UNL1        0.1417
     22 C          63.1735   90.9750   10.0084 C.ar    1  UNL1        0.0367
     23 C          62.5090   89.6303    9.9884 C.ar    1  UNL1       -0.0011
     24 C          62.4879   88.7857   11.2278 C.ar    1  UNL1       -0.0201
     25 C          63.1312   89.2858   12.4872 C.ar    1  UNL1        0.0020
     26 C          63.7956   90.6305   12.5072 C.ar    1  UNL1        0.0727
     27 C          64.4389   91.1305   13.7666 C.ar    1  UNL1        0.2066
     28 N          65.8955   91.4377   13.9508 N.ar    1  UNL1       -0.1828
     29 C          66.0953   91.9082   15.3610 C.ar    1  UNL1        0.3164
     30 O          64.7621   91.8919   16.0484 O.2     1  UNL1       -0.3274
     31 N          63.7384   91.4113   15.0630 N.ar    1  UNL1       -0.0553
     32 C          65.7655   93.0328   10.5427 C.3     1  UNL1        0.2525
     33 O          64.4812   92.8197   11.2877 O.3     1  UNL1       -0.4713
@<TRIPOS>BOND
     1    32    33    1
     2    33    21    1
     3    21    22   ar
     4    22    23   ar
     5    23    24   ar
     6    24    20    1
     7     1    20    1
     8     1     2    1
     9     2     3    1
    10     3     4    1
    11     4     5    1
    12     5     6    1
    13     6     7   am
    14     7     8    2
    15     7     9    1
    16     9    10   ar
    17    10    11   ar
    18    11    12   ar
    19    12    13   ar
    20    13    14   ar
    21    14    15    1
    22    15    16   ar
    23    16    17   ar
    24    17    18   ar
    25    18    19   ar
    26    24    25   ar
    27    25    26   ar
    28    26    27    1
    29    27    28   ar
    30    28    29   ar
    31    29    30   ar
    32    30    31   ar
    33    26    21   ar
    34    31    27   ar
    35     6     1    1
    36    14     9   ar
    37    19    15   ar
@<TRIPOS>MOLECULE
*****
 33 37 0 0 0
SMALL
GASTEIGER

@<TRIPOS>ATOM
      1 C          63.1152   89.4336   14.3592 C.3     1  UNL1        0.1096
      2 C          63.0463   90.2205   15.6344 C.3     1  UNL1        0.1622
      3 O          63.1780   89.5216   16.9550 O.3     1  UNL1       -0.3502
      4 C          63.3788   88.0358   17.0005 C.3     1  UNL1        0.1637
      5 C          63.4478   87.2489   15.7254 C.3     1  UNL1        0.1257
      6 N          63.3160   87.9478   14.4047 N.am    1  UNL1       -0.2723
      7 C          63.3850   87.1609   13.1296 C.2     1  UNL1        0.2506
      8 O          63.2532   87.8598   11.8089 O.2     1  UNL1       -0.2699
      9 C          63.5857   85.6750   13.1751 C.ar    1  UNL1        0.0729
     10 C          64.3272   85.0532   14.3211 C.ar    1  UNL1        0.0061
     11 C          64.5280   83.5674   14.3666 C.ar    1  UNL1        0.0002
     12 C          63.9872   82.7034   13.2661 C.ar    1  UNL1        0.0016
     13 C          63.2457   83.3253   12.1201 C.ar    1  UNL1        0.0211
     14 C          63.0450   84.8111   12.0746 C.ar    1  UNL1        0.1072
     15 N          62.3034   85.4330   10.9285 N.ar    1  UNL1       -0.1477
     16 N          62.7282   85.4151    9.4900 N.ar    1  UNL1       -0.1447
     17 C          61.6943   86.1529    8.6921 C.ar    1  UNL1        0.1446
     18 C          60.6305   86.6268    9.6375 C.ar    1  UNL1        0.1446
     19 N          61.0070   86.1818   11.0196 N.ar    1  UNL1       -0.1447
     20 C          62.9834   90.1325   13.0385 C.3     1  UNL1        0.0487
     21 C          66.2243   92.9215   11.6356 C.ar    1  UNL1        0.1417
     22 C          65.1080   92.5421   10.7083 C.ar    1  UNL1        0.0367
     23 C          64.0277   91.6124   11.1760 C.ar    1  UNL1       -0.0011
     24 C          64.0637   91.0622   12.5709 C.ar    1  UNL1       -0.0201
     25 C          65.1800   91.4416   13.4982 C.ar    1  UNL1        0.0020
     26 C          66.2603   92.3712   13.0305 C.ar    1  UNL1        0.0727
     27 C          67.3766   92.7506   13.9579 C.ar    1  UNL1        0.2066
     28 N          67.2573   93.6278   15.1688 N.ar    1  UNL1       -0.1828
     29 C          68.6152   93.7387   15.7964 C.ar    1  UNL1        0.3164
     30 O          69.5738   92.9301   14.9733 O.2     1  UNL1       -0.3274
     31 N          68.8083   92.3195   13.8370 N.ar    1  UNL1       -0.0553
     32 C          67.0023   94.8898   10.1287 C.3     1  UNL1        0.2525
     33 O          67.3046   93.8512   11.1679 O.3     1  UNL1       -0.4713
@<TRIPOS>BOND
     1    32    33    1
     2    33    21    1
     3    21    22   ar
     4    22    23   ar
     5    23    24   ar
     6    24    20    1
     7     1    20    1
     8     1     2    1
     9     2     3    1
    10     3     4    1
    11     4     5    1
    12     5     6    1
    13     6     7   am
    14     7     8    2
    15     7     9    1
    16     9    10   ar
    17    10    11   ar
    18    11    12   ar
    19    12    13   ar
    20    13    14   ar
    21    14    15    1
    22    15    16   ar
    23    16    17   ar
    24    17    18   ar
    25    18    19   ar
    26    24    25   ar
    27    25    26   ar
    28    26    27    1
    29    27    28   ar
    30    28    29   ar
    31    29    30   ar
    32    30    31   ar
    33    26    21   ar
    34    31    27   ar
    35     6     1    1
    36    14     9   ar
    37    19    15   ar
@<TRIPOS>MOLECULE
*****
 33 37 0 0 0
SMALL
GASTEIGER

@<TRIPOS>ATOM
      1 C          63.8941   88.3257   13.8654 C.3     1  UNL1        0.1096
      2 C          64.5661   87.5548   14.9628 C.3     1  UNL1        0.1622
      3 O          64.6400   86.0583   14.8916 O.3     1  UNL1       -0.3502
      4 C          64.0419   85.3327   13.7230 C.3     1  UNL1        0.1637
      5 C          63.3699   86.1034   12.6256 C.3     1  UNL1        0.1257
      6 N          63.2960   87.6000   12.6968 N.am    1  UNL1       -0.2723
      7 C          62.6240   88.3707   11.5994 C.2     1  UNL1        0.2506
      8 O          62.5501   89.8672   11.6706 O.2     1  UNL1       -0.2699
      9 C          62.0259   87.6451   10.4308 C.ar    1  UNL1        0.0729
     10 C          62.8443   86.6436    9.6712 C.ar    1  UNL1        0.0061
     11 C          62.2462   85.9179    8.5026 C.ar    1  UNL1        0.0002
     12 C          60.8297   86.1937    8.0936 C.ar    1  UNL1        0.0016
     13 C          60.0113   87.1952    8.8532 C.ar    1  UNL1        0.0211
     14 C          60.6094   87.9209   10.0219 C.ar    1  UNL1        0.1072
     15 N          59.7909   88.9224   10.7815 N.ar    1  UNL1       -0.1477
     16 N          59.0178   88.6571   12.0393 N.ar    1  UNL1       -0.1447
     17 C          58.3509   89.9357   12.4520 C.ar    1  UNL1        0.1446
     18 C          58.7117   90.9913   11.4491 C.ar    1  UNL1        0.1446
     19 N          59.6017   90.3650   10.4168 N.ar    1  UNL1       -0.1447
     20 C          63.8202   89.8221   13.9366 C.3     1  UNL1        0.0487
     21 C          67.6009   92.2548   14.1325 C.ar    1  UNL1        0.1417
     22 C          67.0886   91.5646   15.3618 C.ar    1  UNL1        0.0367
     23 C          65.8284   90.7538   15.2965 C.ar    1  UNL1       -0.0011
     24 C          65.0805   90.6330   14.0019 C.ar    1  UNL1       -0.0201
     25 C          65.5928   91.3231   12.7726 C.ar    1  UNL1        0.0020
     26 C          66.8530   92.1340   12.8379 C.ar    1  UNL1        0.0727
     27 C          67.3653   92.8242   11.6086 C.ar    1  UNL1        0.2066
     28 N          66.8720   94.1303   11.0604 N.ar    1  UNL1       -0.1828
     29 C          67.6627   94.4427    9.8246 C.ar    1  UNL1        0.3164
     30 O          68.6448   93.3295    9.6090 O.2     1  UNL1       -0.3274
     31 N          68.4610   92.3292   10.7115 N.ar    1  UNL1       -0.0553
     32 C          69.4124   93.4894   15.5269 C.3     1  UNL1        0.2525
     33 O          68.8612   93.0657   14.1978 O.3     1  UNL1       -0.4713
@<TRIPOS>BOND
     1    32    33    1
     2    33    21    1
     3    21    22   ar
     4    22    23   ar
     5    23    24   ar
     6    24    20    1
     7     1    20    1
     8     1     2    1
     9     2     3    1
    10     3     4    1
    11     4     5    1
    12     5     6    1
    13     6     7   am
    14     7     8    2
    15     7     9    1
    16     9    10   ar
    17    10    11   ar
    18    11    12   ar
    19    12    13   ar
    20    13    14   ar
    21    14    15    1
    22    15    16   ar
    23    16    17   ar
    24    17    18   ar
    25    18    19   ar
    26    24    25   ar
    27    25    26   ar
    28    26    27    1
    29    27    28   ar
    30    28    29   ar
    31    29    30   ar
    32    30    31   ar
    33    26    21   ar
    34    31    27   ar
    35     6     1    1
    36    14     9   ar
    37    19    15   ar
