@<TRIPOS>MOLECULE
*****
 39 42 0 0 0
SMALL
GASTEIGER

@<TRIPOS>ATOM
      1 C          62.8121   88.6237   12.1845 C.ar    1  UNL1        0.2144
      2 C          62.5739   89.0628   10.7701 C.ar    1  UNL1        0.1822
      3 O          63.1966   90.3298   10.2631 O.2     1  UNL1       -0.4500
      4 C          64.0576   91.1577   11.1706 C.ar    1  UNL1        0.1545
      5 C          64.6803   92.4246   10.6636 C.ar    1  UNL1        0.0744
      6 C          65.5412   93.2525   11.5711 C.ar    1  UNL1        0.1397
      7 O          66.1640   94.5195   11.0641 O.3     1  UNL1       -0.5053
      8 C          65.7794   92.8134   12.9854 C.ar    1  UNL1        0.0735
      9 C          65.1566   91.5465   13.4924 C.ar    1  UNL1        0.1428
     10 O          65.3948   91.1074   14.9068 O.3     1  UNL1       -0.5052
     11 C          64.2957   90.7186   12.5850 C.ar    1  UNL1        0.1104
     12 C          63.6730   89.4516   13.0919 C.ar    1  UNL1        0.2382
     13 O          63.9111   89.0125   14.5063 O.2     1  UNL1       -0.2830
     14 H          66.0152   94.7938   10.1806 H       1  UNL1        0.2922
     15 H          65.9326   91.6245   15.4736 H       1  UNL1        0.2922
     16 C          61.7129   88.2349    9.8626 C.ar    1  UNL1        0.0379
     17 C          62.2805   87.0173    9.1953 C.ar    1  UNL1        0.0062
     18 C          61.4195   86.1895    8.2879 C.ar    1  UNL1        0.0367
     19 C          59.9911   86.5792    8.0479 C.ar    1  UNL1        0.1337
     20 O          59.1301   85.7513    7.1404 O.3     1  UNL1       -0.5055
     21 C          59.4235   87.7968    8.7152 C.ar    1  UNL1        0.0367
     22 C          60.2845   88.6246    9.6226 C.ar    1  UNL1        0.0062
     23 H          59.4846   84.9907    6.7236 H       1  UNL1        0.2922
     24 O          62.1893   87.3567   12.6914 O.3     1  UNL1       -0.4433
     25 C          63.6736   85.5422   13.8114 C.3     1  UNL1        0.2672
     26 C          62.9454   86.0639   12.6083 C.3     1  UNL1        0.3320
     27 O          62.9733   85.2928   11.3219 O.3     1  UNL1       -0.3177
     28 C          63.7294   83.9999   11.2388 C.3     1  UNL1        0.1482
     29 C          63.7573   83.2288    9.9525 C.3     1  UNL1        0.0349
     30 C          64.4576   83.4782   12.4420 C.3     1  UNL1        0.1681
     31 O          65.2137   82.1854   12.3589 O.3     1  UNL1       -0.3795
     32 C          64.4297   84.2494   13.7283 C.3     1  UNL1        0.1862
     33 O          65.1578   83.7277   14.9314 O.3     1  UNL1       -0.3784
     34 H          65.1301   81.8189   11.4647 H       1  UNL1        0.2105
     35 H          65.5908   82.8887   14.7087 H       1  UNL1        0.2106
     36 O          63.6456   86.3134   15.0976 O.3     1  UNL1       -0.4430
     37 C          62.7186   86.6208   17.5052 C.3     1  UNL1        0.1212
     38 C          62.8932   85.7753   16.2785 C.2     1  UNL1        0.3177
     39 O          62.3155   84.3918   16.2327 O.2     1  UNL1       -0.2501
@<TRIPOS>BOND
     1    37    38    1
     2    38    39    2
     3    38    36    1
     4    25    36    1
     5    25    26    1
     6    26    24    1
     7    24     1    1
     8     1     2   ar
     9     2    16    1
    10    16    17   ar
    11    17    18   ar
    12    18    19   ar
    13    19    20    1
    14    19    21   ar
    15    21    22   ar
    16     2     3   ar
    17     3     4   ar
    18     4     5   ar
    19     5     6   ar
    20     6     7    1
    21     6     8   ar
    22     8     9   ar
    23     9    10    1
    24     9    11   ar
    25    11    12   ar
    26    12    13    2
    27    26    27    1
    28    27    28    1
    29    28    29    1
    30    28    30    1
    31    30    31    1
    32    30    32    1
    33    32    33    1
    34    32    25    1
    35    12     1   ar
    36    22    16   ar
    37    11     4   ar
    38    20    23    1
    39     7    14    1
    40    10    15    1
    41    31    34    1
    42    33    35    1
@<TRIPOS>MOLECULE
*****
 39 42 0 0 0
SMALL
GASTEIGER

@<TRIPOS>ATOM
      1 C          62.8933   87.2377   12.2191 C.ar    1  UNL1        0.2144
      2 C          62.4080   85.9061   11.7277 C.ar    1  UNL1        0.1822
      3 O          61.4722   85.8341   10.5577 O.2     1  UNL1       -0.4500
      4 C          61.0216   87.0936    9.8790 C.ar    1  UNL1        0.1545
      5 C          60.0857   87.0215    8.7090 C.ar    1  UNL1        0.0744
      6 C          59.6351   88.2810    8.0304 C.ar    1  UNL1        0.1397
      7 O          58.6992   88.2090    6.8603 O.3     1  UNL1       -0.5053
      8 C          60.1203   89.6126    8.5218 C.ar    1  UNL1        0.0735
      9 C          61.0561   89.6847    9.6918 C.ar    1  UNL1        0.1428
     10 O          61.5413   91.0162   10.1832 O.3     1  UNL1       -0.5052
     11 C          61.5068   88.4252   10.3704 C.ar    1  UNL1        0.1104
     12 C          62.4426   88.4972   11.5405 C.ar    1  UNL1        0.2382
     13 O          62.9278   89.8288   12.0319 O.2     1  UNL1       -0.2830
     14 H          58.3961   87.3772    6.5533 H       1  UNL1        0.2922
     15 H          61.2599   91.8030    9.7593 H       1  UNL1        0.2922
     16 C          62.8587   84.6466   12.4064 C.ar    1  UNL1        0.0379
     17 C          63.8205   83.7255   11.7161 C.ar    1  UNL1        0.0062
     18 C          64.2711   82.4661   12.3948 C.ar    1  UNL1        0.0367
     19 C          63.7599   82.1277   13.7638 C.ar    1  UNL1        0.1337
     20 O          64.2106   80.8681   14.4425 O.3     1  UNL1       -0.5055
     21 C          62.7982   83.0487   14.4541 C.ar    1  UNL1        0.0367
     22 C          62.3476   84.3082   13.7754 C.ar    1  UNL1        0.0062
     23 H          64.8114   80.2928   14.0112 H       1  UNL1        0.2922
     24 O          63.8291   87.3098   13.3892 O.3     1  UNL1       -0.4433
     25 C          63.4471   88.9334   15.3811 C.3     1  UNL1        0.2672
     26 C          64.0897   88.6252   14.0613 C.3     1  UNL1        0.3320
     27 O          64.9929   89.6325   13.4135 O.3     1  UNL1       -0.3177
     28 C          65.2534   90.9480   14.0856 C.3     1  UNL1        0.1482
     29 C          66.1565   91.9553   13.4378 C.3     1  UNL1        0.0349
     30 C          64.6107   91.2561   15.4055 C.3     1  UNL1        0.1681
     31 O          64.8713   92.5716   16.0776 O.3     1  UNL1       -0.3795
     32 C          63.7076   90.2488   16.0532 C.3     1  UNL1        0.1862
     33 O          63.0650   90.5570   17.3731 O.3     1  UNL1       -0.3784
     34 H          65.4715   93.1012   15.5298 H       1  UNL1        0.2105
     35 H          63.3361   91.4410   17.6661 H       1  UNL1        0.2106
     36 O          62.5439   87.9261   16.0289 O.3     1  UNL1       -0.4430
     37 C          62.7272   86.6838   18.3034 C.3     1  UNL1        0.1212
     38 C          63.1260   86.8245   16.8643 C.2     1  UNL1        0.3177
     39 O          64.1069   85.8636   16.2605 O.2     1  UNL1       -0.2501
@<TRIPOS>BOND
     1    37    38    1
     2    38    39    2
     3    38    36    1
     4    25    36    1
     5    25    26    1
     6    26    24    1
     7    24     1    1
     8     1     2   ar
     9     2    16    1
    10    16    17   ar
    11    17    18   ar
    12    18    19   ar
    13    19    20    1
    14    19    21   ar
    15    21    22   ar
    16     2     3   ar
    17     3     4   ar
    18     4     5   ar
    19     5     6   ar
    20     6     7    1
    21     6     8   ar
    22     8     9   ar
    23     9    10    1
    24     9    11   ar
    25    11    12   ar
    26    12    13    2
    27    26    27    1
    28    27    28    1
    29    28    29    1
    30    28    30    1
    31    30    31    1
    32    30    32    1
    33    32    33    1
    34    32    25    1
    35    12     1   ar
    36    22    16   ar
    37    11     4   ar
    38    20    23    1
    39     7    14    1
    40    10    15    1
    41    31    34    1
    42    33    35    1
@<TRIPOS>MOLECULE
*****
 39 42 0 0 0
SMALL
GASTEIGER

@<TRIPOS>ATOM
      1 C          62.4624   87.4940   11.5450 C.ar    1  UNL1        0.2144
      2 C          62.5818   88.9880   11.4828 C.ar    1  UNL1        0.1822
      3 O          61.8595   89.7543   10.4146 O.2     1  UNL1       -0.4500
      4 C          61.0177   89.0266    9.4086 C.ar    1  UNL1        0.1545
      5 C          60.2953   89.7929    8.3405 C.ar    1  UNL1        0.0744
      6 C          59.4536   89.0653    7.3346 C.ar    1  UNL1        0.1397
      7 O          58.7312   89.8316    6.2663 O.3     1  UNL1       -0.5053
      8 C          59.3342   87.5713    7.3968 C.ar    1  UNL1        0.0735
      9 C          60.0565   86.8050    8.4649 C.ar    1  UNL1        0.1428
     10 O          59.9371   85.3111    8.5271 O.3     1  UNL1       -0.5052
     11 C          60.8982   87.5327    9.4709 C.ar    1  UNL1        0.1104
     12 C          61.6206   86.7664   10.5391 C.ar    1  UNL1        0.2382
     13 O          61.5012   85.2724   10.6013 O.2     1  UNL1       -0.2830
     14 H          58.8058   90.7648    6.2275 H       1  UNL1        0.2922
     15 H          59.4113   84.8565    7.8987 H       1  UNL1        0.2922
     16 C          63.4236   89.7156   12.4888 C.ar    1  UNL1        0.0379
     17 C          63.9763   91.0716   12.1638 C.ar    1  UNL1        0.0062
     18 C          64.8181   91.7992   13.1698 C.ar    1  UNL1        0.0367
     19 C          65.1071   91.1707   14.5008 C.ar    1  UNL1        0.1337
     20 O          65.9489   91.8984   15.5068 O.3     1  UNL1       -0.5055
     21 C          64.5544   89.8147   14.8258 C.ar    1  UNL1        0.0367
     22 C          63.7126   89.0872   13.8198 C.ar    1  UNL1        0.0062
     23 H          66.2942   92.7455   15.3038 H       1  UNL1        0.2922
     24 O          63.1848   86.7277   12.6132 O.3     1  UNL1       -0.4433
     25 C          62.7269   84.4619   13.7992 C.3     1  UNL1        0.2672
     26 C          63.1819   85.2279   12.5924 C.3     1  UNL1        0.3320
     27 O          63.6340   84.4940   11.3648 O.3     1  UNL1       -0.3177
     28 C          63.6311   82.9941   11.3440 C.3     1  UNL1        0.1482
     29 C          64.0832   82.2602   10.1164 C.3     1  UNL1        0.0349
     30 C          63.1761   82.2282   12.5508 C.3     1  UNL1        0.1681
     31 O          63.1732   80.7283   12.5300 O.3     1  UNL1       -0.3795
     32 C          62.7240   82.9621   13.7783 C.3     1  UNL1        0.1862
     33 O          62.2690   82.1961   14.9851 O.3     1  UNL1       -0.3784
     34 H          63.4919   80.4163   11.6686 H       1  UNL1        0.2105
     35 H          62.3290   81.2447   14.8057 H       1  UNL1        0.2106
     36 O          62.2748   85.1958   15.0267 O.3     1  UNL1       -0.4430
     37 C          62.8521   86.2484   17.3308 C.3     1  UNL1        0.1212
     38 C          63.2873   85.7506   15.9844 C.2     1  UNL1        0.3177
     39 O          64.7349   85.8075   15.5957 O.2     1  UNL1       -0.2501
@<TRIPOS>BOND
     1    37    38    1
     2    38    39    2
     3    38    36    1
     4    25    36    1
     5    25    26    1
     6    26    24    1
     7    24     1    1
     8     1     2   ar
     9     2    16    1
    10    16    17   ar
    11    17    18   ar
    12    18    19   ar
    13    19    20    1
    14    19    21   ar
    15    21    22   ar
    16     2     3   ar
    17     3     4   ar
    18     4     5   ar
    19     5     6   ar
    20     6     7    1
    21     6     8   ar
    22     8     9   ar
    23     9    10    1
    24     9    11   ar
    25    11    12   ar
    26    12    13    2
    27    26    27    1
    28    27    28    1
    29    28    29    1
    30    28    30    1
    31    30    31    1
    32    30    32    1
    33    32    33    1
    34    32    25    1
    35    12     1   ar
    36    22    16   ar
    37    11     4   ar
    38    20    23    1
    39     7    14    1
    40    10    15    1
    41    31    34    1
    42    33    35    1
@<TRIPOS>MOLECULE
*****
 39 42 0 0 0
SMALL
GASTEIGER

@<TRIPOS>ATOM
      1 C          63.5015   89.7383   13.5894 C.ar    1  UNL1        0.2144
      2 C          64.3392   89.0117   14.5995 C.ar    1  UNL1        0.1822
      3 O          65.6720   89.5663   15.0069 O.2     1  UNL1       -0.4500
      4 C          66.1672   90.8475   14.4042 C.ar    1  UNL1        0.1545
      5 C          67.5000   91.4021   14.8116 C.ar    1  UNL1        0.0744
      6 C          67.9952   92.6833   14.2089 C.ar    1  UNL1        0.1397
      7 O          69.3280   93.2380   14.6163 O.3     1  UNL1       -0.5053
      8 C          67.1575   93.4099   13.1987 C.ar    1  UNL1        0.0735
      9 C          65.8247   92.8553   12.7913 C.ar    1  UNL1        0.1428
     10 O          64.9870   93.5819   11.7812 O.3     1  UNL1       -0.5052
     11 C          65.3296   91.5742   13.3941 C.ar    1  UNL1        0.1104
     12 C          63.9967   91.0195   12.9867 C.ar    1  UNL1        0.2382
     13 O          63.1590   91.7461   11.9765 O.2     1  UNL1       -0.2830
     14 H          69.8513   92.7841   15.2473 H       1  UNL1        0.2922
     15 H          65.2964   94.3823   11.4047 H       1  UNL1        0.2922
     16 C          63.8440   87.7304   15.2023 C.ar    1  UNL1        0.0379
     17 C          63.0991   87.7527   16.5041 C.ar    1  UNL1        0.0062
     18 C          62.6040   86.4714   17.1067 C.ar    1  UNL1        0.0367
     19 C          62.8536   85.1680   16.4076 C.ar    1  UNL1        0.1337
     20 O          62.3584   83.8868   17.0103 O.3     1  UNL1       -0.5055
     21 C          63.5985   85.1458   15.1058 C.ar    1  UNL1        0.0367
     22 C          64.0936   86.4270   14.5032 C.ar    1  UNL1        0.0062
     23 H          61.8931   83.9006   17.8235 H       1  UNL1        0.2922
     24 O          62.1687   89.1837   13.1820 O.3     1  UNL1       -0.4433
     25 C          61.2932   88.9294   10.7491 C.3     1  UNL1        0.2672
     26 C          62.0450   88.3768   11.9236 C.3     1  UNL1        0.3320
     27 O          62.6733   87.0172   11.8396 O.3     1  UNL1       -0.3177
     28 C          62.5497   86.2103   10.5812 C.3     1  UNL1        0.1482
     29 C          63.1779   84.8509   10.4972 C.3     1  UNL1        0.0349
     30 C          61.7978   86.7630    9.4067 C.3     1  UNL1        0.1681
     31 O          61.6742   85.9561    8.1483 O.3     1  UNL1       -0.3795
     32 C          61.1696   88.1225    9.4907 C.3     1  UNL1        0.1862
     33 O          60.4177   88.6751    8.3163 O.3     1  UNL1       -0.3784
     34 H          62.1333   85.1091    8.2609 H       1  UNL1        0.2105
     35 H          60.4333   88.0316    7.5906 H       1  UNL1        0.2106
     36 O          60.6650   90.2888   10.8332 O.3     1  UNL1       -0.4430
     37 C          58.7977   89.3425   12.3720 C.3     1  UNL1        0.1212
     38 C          59.3722   90.4733   11.5712 C.2     1  UNL1        0.3177
     39 O          58.6539   91.7887   11.5086 O.2     1  UNL1       -0.2501
@<TRIPOS>BOND
     1    37    38    1
     2    38    39    2
     3    38    36    1
     4    25    36    1
     5    25    26    1
     6    26    24    1
     7    24     1    1
     8     1     2   ar
     9     2    16    1
    10    16    17   ar
    11    17    18   ar
    12    18    19   ar
    13    19    20    1
    14    19    21   ar
    15    21    22   ar
    16     2     3   ar
    17     3     4   ar
    18     4     5   ar
    19     5     6   ar
    20     6     7    1
    21     6     8   ar
    22     8     9   ar
    23     9    10    1
    24     9    11   ar
    25    11    12   ar
    26    12    13    2
    27    26    27    1
    28    27    28    1
    29    28    29    1
    30    28    30    1
    31    30    31    1
    32    30    32    1
    33    32    33    1
    34    32    25    1
    35    12     1   ar
    36    22    16   ar
    37    11     4   ar
    38    20    23    1
    39     7    14    1
    40    10    15    1
    41    31    34    1
    42    33    35    1
