@<TRIPOS>MOLECULE
*****
 29 31 0 0 0
SMALL
GASTEIGER

@<TRIPOS>ATOM
      1 C          62.6182   85.6918   11.9110 C.2     1  UNL1        0.2548
      2 O          62.7346   84.3226   12.5126 O.2     1  UNL1       -0.2694
      3 N          63.1767   86.8798   12.6368 N.am    1  UNL1       -0.2757
      4 C          63.8514   86.6987   13.9641 C.3     1  UNL1        0.0941
      5 C          64.4098   87.8868   14.6898 C.3     1  UNL1        0.0259
      6 C          64.2935   89.2559   14.0882 C.3     1  UNL1        0.0257
      7 C          63.6187   89.4370   12.7609 C.3     1  UNL1        0.0259
      8 C          63.0603   88.2490   12.0352 C.3     1  UNL1        0.0941
      9 C          60.4129   86.6220    8.8555 C.ar    1  UNL1        0.1747
     10 S          60.7504   86.7405   10.3122 S.2     1  UNL1       -0.0459
     11 C          61.9435   85.8728   10.5837 C.ar    1  UNL1        0.0824
     12 C          62.3433   85.2180    9.2947 C.ar    1  UNL1       -0.0017
     13 C          63.4881   84.2672    9.1068 C.3     1  UNL1        0.0323
     14 C          61.3973   85.6810    8.2266 C.ar    1  UNL1        0.0716
     15 BR         61.4301   85.2745    6.7832 Br      1  UNL1       -0.0456
     16 O          59.2883   87.3216    8.1513 O.3     1  UNL1       -0.4692
     17 C          59.4275   88.7642    7.7646 C.3     1  UNL1        0.2061
     18 C          58.8726   90.4663    5.8818 C.3     1  UNL1        0.0040
     19 C          59.4535   89.1534    6.3162 C.3     1  UNL1        0.0474
     20 C          64.8519   90.4440   14.8140 C.ar    1  UNL1       -0.0227
     21 C          64.0875   91.0561   15.9502 C.ar    1  UNL1       -0.0043
     22 C          64.6460   92.2442   16.6760 C.ar    1  UNL1       -0.0006
     23 C          65.9688   92.8200   16.2655 C.ar    1  UNL1       -0.0030
     24 C          66.7332   92.2078   15.1293 C.ar    1  UNL1       -0.0069
     25 C          66.1748   91.0198   14.4036 C.ar    1  UNL1       -0.0072
     26 C          68.0561   92.7837   14.7188 C.3     1  UNL1        0.0922
     27 N          68.9764   91.9939   13.8360 N.3     1  UNL1       -0.3175
     28 H          69.2987   91.1651   14.3357 H       1  UNL1        0.1192
     29 H          69.7785   92.5695   13.5795 H       1  UNL1        0.1192
@<TRIPOS>BOND
     1    18    19    1
     2    19    17    1
     3    17    16    1
     4    16     9    1
     5     9    10   ar
     6    10    11   ar
     7    11     1    1
     8     1     2    2
     9     1     3   am
    10     3     4    1
    11     4     5    1
    12     5     6    1
    13     6    20    1
    14    20    21   ar
    15    21    22   ar
    16    22    23   ar
    17    23    24   ar
    18    24    26    1
    19    26    27    1
    20    24    25   ar
    21     6     7    1
    22     7     8    1
    23    11    12   ar
    24    12    13    1
    25    12    14   ar
    26    14    15    1
    27    14     9   ar
    28     8     3    1
    29    25    20   ar
    30    27    28    1
    31    27    29    1
@<TRIPOS>MOLECULE
*****
 29 31 0 0 0
SMALL
GASTEIGER

@<TRIPOS>ATOM
      1 C          62.4294   86.2456   11.5158 C.2     1  UNL1        0.2548
      2 O          61.6257   86.5864   10.2960 O.2     1  UNL1       -0.2694
      3 N          63.0579   87.3380   12.3293 N.am    1  UNL1       -0.2757
      4 C          62.8825   88.7713   11.9230 C.3     1  UNL1        0.0941
      5 C          63.5109   89.8636   12.7365 C.3     1  UNL1        0.0259
      6 C          64.3146   89.5227   13.9563 C.3     1  UNL1        0.0257
      7 C          64.4900   88.0895   14.3626 C.3     1  UNL1        0.0259
      8 C          63.8616   86.9972   13.5491 C.3     1  UNL1        0.0941
      9 C          62.6098   82.7681   13.2302 C.ar    1  UNL1        0.1747
     10 S          62.2794   84.2308   13.2659 S.2     1  UNL1       -0.0459
     11 C          62.6048   84.8124   11.9221 C.ar    1  UNL1        0.0824
     12 C          63.1363   83.7091   11.0559 C.ar    1  UNL1       -0.0017
     13 C          63.5857   83.8453    9.6313 C.3     1  UNL1        0.0323
     14 C          63.1394   82.4456   11.8643 C.ar    1  UNL1        0.0716
     15 BR         63.5925   81.0966   11.3902 Br      1  UNL1       -0.0456
     16 O          62.4403   81.7981   14.3618 O.3     1  UNL1       -0.4692
     17 C          61.5200   80.6232   14.2111 C.3     1  UNL1        0.2061
     18 C          59.0851   79.7540   14.4667 C.3     1  UNL1        0.0040
     19 C          60.0421   80.8407   14.0753 C.3     1  UNL1        0.0474
     20 C          64.9430   90.6152   14.7698 C.ar    1  UNL1       -0.0227
     21 C          64.1753   91.2528   15.8896 C.ar    1  UNL1       -0.0043
     22 C          64.8037   92.3453   16.7031 C.ar    1  UNL1       -0.0006
     23 C          66.1999   92.8000   16.3968 C.ar    1  UNL1       -0.0030
     24 C          66.9677   92.1624   15.2770 C.ar    1  UNL1       -0.0069
     25 C          66.3392   91.0700   14.4635 C.ar    1  UNL1       -0.0072
     26 C          68.3638   92.6171   14.9707 C.3     1  UNL1        0.0922
     27 N          69.0745   92.0926   13.7582 N.3     1  UNL1       -0.3175
     28 H          69.2410   91.0923   13.8679 H       1  UNL1        0.1192
     29 H          69.9662   92.5760   13.6511 H       1  UNL1        0.1192
@<TRIPOS>BOND
     1    18    19    1
     2    19    17    1
     3    17    16    1
     4    16     9    1
     5     9    10   ar
     6    10    11   ar
     7    11     1    1
     8     1     2    2
     9     1     3   am
    10     3     4    1
    11     4     5    1
    12     5     6    1
    13     6    20    1
    14    20    21   ar
    15    21    22   ar
    16    22    23   ar
    17    23    24   ar
    18    24    26    1
    19    26    27    1
    20    24    25   ar
    21     6     7    1
    22     7     8    1
    23    11    12   ar
    24    12    13    1
    25    12    14   ar
    26    14    15    1
    27    14     9   ar
    28     8     3    1
    29    25    20   ar
    30    27    28    1
    31    27    29    1
@<TRIPOS>MOLECULE
*****
 29 31 0 0 0
SMALL
GASTEIGER

@<TRIPOS>ATOM
      1 C          62.3621   89.7606   11.7162 C.2     1  UNL1        0.2548
      2 O          61.2966   90.4357   10.9046 O.2     1  UNL1       -0.2694
      3 N          62.4413   88.2631   11.7528 N.am    1  UNL1       -0.2757
      4 C          61.4548   87.4408   10.9777 C.3     1  UNL1        0.0941
      5 C          61.5340   85.9433   11.0143 C.3     1  UNL1        0.0259
      6 C          62.5996   85.2682   11.8259 C.3     1  UNL1        0.0257
      7 C          63.5860   86.0905   12.6009 C.3     1  UNL1        0.0259
      8 C          63.5068   87.5879   12.5644 C.3     1  UNL1        0.0941
      9 C          64.6365   91.5245   14.3202 C.ar    1  UNL1        0.1747
     10 S          63.5562   90.5423   13.9763 S.2     1  UNL1       -0.0459
     11 C          63.3486   90.5829   12.4913 C.ar    1  UNL1        0.0824
     12 C          64.3005   91.5901   11.9175 C.ar    1  UNL1       -0.0017
     13 C          64.4332   91.9518   10.4678 C.3     1  UNL1        0.0323
     14 C          65.0966   92.1720   13.0478 C.ar    1  UNL1        0.0716
     15 BR         66.1650   93.2179   12.9269 Br      1  UNL1       -0.0456
     16 O          65.1642   91.8091   15.6952 O.3     1  UNL1       -0.4692
     17 C          66.2751   92.7995   15.8821 C.3     1  UNL1        0.2061
     18 C          68.8486   93.1352   15.7625 C.3     1  UNL1        0.0040
     19 C          67.6633   92.3207   16.1883 C.3     1  UNL1        0.0474
     20 C          62.6787   83.7707   11.8624 C.ar    1  UNL1       -0.0227
     21 C          63.3444   83.0273   10.7425 C.ar    1  UNL1       -0.0043
     22 C          63.4235   81.5298   10.7791 C.ar    1  UNL1       -0.0006
     23 C          62.8369   80.7757   11.9355 C.ar    1  UNL1       -0.0030
     24 C          62.1712   81.5192   13.0554 C.ar    1  UNL1       -0.0069
     25 C          62.0921   83.0166   13.0188 C.ar    1  UNL1       -0.0072
     26 C          61.5845   80.7652   14.2118 C.3     1  UNL1        0.0922
     27 N          60.0994   80.5778   14.3091 N.3     1  UNL1       -0.3175
     28 H          59.6511   81.4830   14.4505 H       1  UNL1        0.1192
     29 H          59.8848   79.9655   15.0961 H       1  UNL1        0.1192
@<TRIPOS>BOND
     1    18    19    1
     2    19    17    1
     3    17    16    1
     4    16     9    1
     5     9    10   ar
     6    10    11   ar
     7    11     1    1
     8     1     2    2
     9     1     3   am
    10     3     4    1
    11     4     5    1
    12     5     6    1
    13     6    20    1
    14    20    21   ar
    15    21    22   ar
    16    22    23   ar
    17    23    24   ar
    18    24    26    1
    19    26    27    1
    20    24    25   ar
    21     6     7    1
    22     7     8    1
    23    11    12   ar
    24    12    13    1
    25    12    14   ar
    26    14    15    1
    27    14     9   ar
    28     8     3    1
    29    25    20   ar
    30    27    28    1
    31    27    29    1
@<TRIPOS>MOLECULE
*****
 29 31 0 0 0
SMALL
GASTEIGER

@<TRIPOS>ATOM
      1 C          62.3534   89.9171   11.7484 C.2     1  UNL1        0.2548
      2 O          61.1995   90.5921   11.0679 O.2     1  UNL1       -0.2694
      3 N          62.4280   88.4195   11.7897 N.am    1  UNL1       -0.2757
      4 C          61.3488   87.5969   11.1505 C.3     1  UNL1        0.0941
      5 C          61.4234   86.0994   11.1918 C.3     1  UNL1        0.0259
      6 C          62.5772   85.4244   11.8723 C.3     1  UNL1        0.0257
      7 C          63.6564   86.2470   12.5115 C.3     1  UNL1        0.0259
      8 C          63.5818   87.7445   12.4702 C.3     1  UNL1        0.0941
      9 C          65.2616   92.3034   12.7037 C.ar    1  UNL1        0.1747
     10 S          64.3392   91.7052   11.6833 S.2     1  UNL1       -0.0459
     11 C          63.4326   90.7397   12.3875 C.ar    1  UNL1        0.0824
     12 C          63.7948   90.7412   13.8432 C.ar    1  UNL1       -0.0017
     13 C          63.1413   89.9204   14.9152 C.3     1  UNL1        0.0323
     14 C          64.9251   91.7077   14.0386 C.ar    1  UNL1        0.0716
     15 BR         65.6005   92.0230   15.3403 Br      1  UNL1       -0.0456
     16 O          66.3325   93.3191   12.4362 O.3     1  UNL1       -0.4692
     17 C          66.3167   94.1074   11.1601 C.3     1  UNL1        0.2061
     18 C          67.8959   92.3659   10.0541 C.3     1  UNL1        0.0040
     19 C          67.0324   93.5877    9.9485 C.3     1  UNL1        0.0474
     20 C          62.6518   83.9268   11.9136 C.ar    1  UNL1       -0.0227
     21 C          63.3082   83.1773   10.7922 C.ar    1  UNL1       -0.0043
     22 C          63.3828   81.6797   10.8335 C.ar    1  UNL1       -0.0006
     23 C          62.8010   80.9316   11.9962 C.ar    1  UNL1       -0.0030
     24 C          62.1446   81.6811   13.1176 C.ar    1  UNL1       -0.0069
     25 C          62.0700   83.1787   13.0763 C.ar    1  UNL1       -0.0072
     26 C          61.5628   80.9330   14.2803 C.3     1  UNL1        0.0922
     27 N          60.1015   80.5944   14.2988 N.3     1  UNL1       -0.3175
     28 H          59.5543   81.4532   14.3573 H       1  UNL1        0.1192
     29 H          59.8990   80.0065   15.1073 H       1  UNL1        0.1192
@<TRIPOS>BOND
     1    18    19    1
     2    19    17    1
     3    17    16    1
     4    16     9    1
     5     9    10   ar
     6    10    11   ar
     7    11     1    1
     8     1     2    2
     9     1     3   am
    10     3     4    1
    11     4     5    1
    12     5     6    1
    13     6    20    1
    14    20    21   ar
    15    21    22   ar
    16    22    23   ar
    17    23    24   ar
    18    24    26    1
    19    26    27    1
    20    24    25   ar
    21     6     7    1
    22     7     8    1
    23    11    12   ar
    24    12    13    1
    25    12    14   ar
    26    14    15    1
    27    14     9   ar
    28     8     3    1
    29    25    20   ar
    30    27    28    1
    31    27    29    1
@<TRIPOS>MOLECULE
*****
 29 31 0 0 0
SMALL
GASTEIGER

@<TRIPOS>ATOM
      1 C          64.2292   88.4213   14.0740 C.2     1  UNL1        0.2548
      2 O          64.8133   87.2195   14.7554 O.2     1  UNL1       -0.2694
      3 N          63.3656   88.2492   12.8596 N.am    1  UNL1       -0.2757
      4 C          63.0861   86.8752   12.3267 C.3     1  UNL1        0.0941
      5 C          62.2226   86.7031   11.1124 C.3     1  UNL1        0.0259
      6 C          61.6385   87.9049   10.4309 C.3     1  UNL1        0.0257
      7 C          61.9180   89.2789   10.9638 C.3     1  UNL1        0.0259
      8 C          62.7816   89.4510   12.1781 C.3     1  UNL1        0.0941
      9 C          65.3472   92.0632   14.8168 C.ar    1  UNL1        0.1747
     10 S          65.3339   90.8513   13.9331 S.2     1  UNL1       -0.0459
     11 C          64.5087   89.7953   14.6068 C.ar    1  UNL1        0.0824
     12 C          64.0121   90.3546   15.9071 C.ar    1  UNL1       -0.0017
     13 C          63.1488   89.6381   16.9027 C.3     1  UNL1        0.0323
     14 C          64.5303   91.7562   16.0369 C.ar    1  UNL1        0.0716
     15 BR         64.2762   92.6874   17.1851 Br      1  UNL1       -0.0456
     16 O          66.0535   93.3552   14.5308 O.3     1  UNL1       -0.4692
     17 C          67.5520   93.3945   14.4749 C.3     1  UNL1        0.2061
     18 C          68.5981   92.0669   16.4479 C.3     1  UNL1        0.0040
     19 C          68.3510   93.3682   15.7441 C.3     1  UNL1        0.0474
     20 C          60.7749   87.7328    9.2166 C.ar    1  UNL1       -0.0227
     21 C          60.3985   86.3568    8.7529 C.ar    1  UNL1       -0.0043
     22 C          59.5349   86.1847    7.5385 C.ar    1  UNL1       -0.0006
     23 C          59.0478   87.3885    6.7878 C.ar    1  UNL1       -0.0030
     24 C          59.4243   88.7645    7.2516 C.ar    1  UNL1       -0.0069
     25 C          60.2879   88.9366    8.4659 C.ar    1  UNL1       -0.0072
     26 C          58.9372   89.9683    6.5009 C.3     1  UNL1        0.0922
     27 N          59.8736   90.7222    5.6036 N.3     1  UNL1       -0.3175
     28 H          60.6067   91.1560    6.1647 H       1  UNL1        0.1192
     29 H          59.3565   91.4447    5.1026 H       1  UNL1        0.1192
@<TRIPOS>BOND
     1    18    19    1
     2    19    17    1
     3    17    16    1
     4    16     9    1
     5     9    10   ar
     6    10    11   ar
     7    11     1    1
     8     1     2    2
     9     1     3   am
    10     3     4    1
    11     4     5    1
    12     5     6    1
    13     6    20    1
    14    20    21   ar
    15    21    22   ar
    16    22    23   ar
    17    23    24   ar
    18    24    26    1
    19    26    27    1
    20    24    25   ar
    21     6     7    1
    22     7     8    1
    23    11    12   ar
    24    12    13    1
    25    12    14   ar
    26    14    15    1
    27    14     9   ar
    28     8     3    1
    29    25    20   ar
    30    27    28    1
    31    27    29    1
@<TRIPOS>MOLECULE
*****
 29 31 0 0 0
SMALL
GASTEIGER

@<TRIPOS>ATOM
      1 C          63.7513   88.8500   15.5667 C.2     1  UNL1        0.2548
      2 O          63.4106   89.2259   16.9783 O.2     1  UNL1       -0.2694
      3 N          63.5430   87.4415   15.0944 N.am    1  UNL1       -0.2757
      4 C          62.9940   86.4090   16.0338 C.3     1  UNL1        0.0941
      5 C          62.7858   85.0006   15.5616 C.3     1  UNL1        0.0259
      6 C          63.1265   84.6248   14.1500 C.3     1  UNL1        0.0257
      7 C          63.6755   85.6573   13.2106 C.3     1  UNL1        0.0259
      8 C          63.8837   87.0657   13.6828 C.3     1  UNL1        0.0941
      9 C          65.7108   91.6025   13.6564 C.ar    1  UNL1        0.1747
     10 S          65.5383   90.7015   14.8431 S.2     1  UNL1       -0.0459
     11 C          64.3003   89.8825   14.6273 C.ar    1  UNL1        0.0824
     12 C          63.7076   90.2774   13.3071 C.ar    1  UNL1       -0.0017
     13 C          62.4620   89.7090   12.6945 C.3     1  UNL1        0.0323
     14 C          64.5794   91.3404   12.7070 C.ar    1  UNL1        0.0716
     15 BR         64.3585   92.0216   11.3890 Br      1  UNL1       -0.0456
     16 O          66.8200   92.5919   13.4544 O.3     1  UNL1       -0.4692
     17 C          67.0117   93.7135   14.4318 C.3     1  UNL1        0.2061
     18 C          68.8153   92.4896   15.8456 C.3     1  UNL1        0.0040
     19 C          67.6680   93.4515   15.7549 C.3     1  UNL1        0.0474
     20 C          62.9182   83.2163   13.6778 C.ar    1  UNL1       -0.0227
     21 C          62.3533   82.1878   14.6121 C.ar    1  UNL1       -0.0043
     22 C          62.1450   80.7794   14.1399 C.ar    1  UNL1       -0.0006
     23 C          62.5017   80.3994   12.7334 C.ar    1  UNL1       -0.0030
     24 C          63.0666   81.4280   11.7990 C.ar    1  UNL1       -0.0069
     25 C          63.2749   82.8364   12.2712 C.ar    1  UNL1       -0.0072
     26 C          63.4233   81.0481   10.3924 C.3     1  UNL1        0.0922
     27 N          62.8518   79.8016    9.7844 N.3     1  UNL1       -0.3175
     28 H          63.2133   78.9857   10.2784 H       1  UNL1        0.1192
     29 H          63.1187   79.7496    8.8013 H       1  UNL1        0.1192
@<TRIPOS>BOND
     1    18    19    1
     2    19    17    1
     3    17    16    1
     4    16     9    1
     5     9    10   ar
     6    10    11   ar
     7    11     1    1
     8     1     2    2
     9     1     3   am
    10     3     4    1
    11     4     5    1
    12     5     6    1
    13     6    20    1
    14    20    21   ar
    15    21    22   ar
    16    22    23   ar
    17    23    24   ar
    18    24    26    1
    19    26    27    1
    20    24    25   ar
    21     6     7    1
    22     7     8    1
    23    11    12   ar
    24    12    13    1
    25    12    14   ar
    26    14    15    1
    27    14     9   ar
    28     8     3    1
    29    25    20   ar
    30    27    28    1
    31    27    29    1
@<TRIPOS>MOLECULE
*****
 29 31 0 0 0
SMALL
GASTEIGER

@<TRIPOS>ATOM
      1 C          62.7035   89.4454   11.8357 C.2     1  UNL1        0.2548
      2 O          61.8393   90.1133   10.8075 O.2     1  UNL1       -0.2694
      3 N          62.7031   87.9504   11.9592 N.am    1  UNL1       -0.2757
      4 C          61.8386   87.1234   11.0544 C.3     1  UNL1        0.0941
      5 C          61.8382   85.6286   11.1779 C.3     1  UNL1        0.0259
      6 C          62.7023   84.9607   12.2061 C.3     1  UNL1        0.0257
      7 C          63.5669   85.7877   13.1108 C.3     1  UNL1        0.0259
      8 C          63.5672   87.2826   12.9874 C.3     1  UNL1        0.0941
      9 C          65.2847   91.7910   13.5388 C.ar    1  UNL1        0.1747
     10 S          64.7013   91.1564   12.3113 S.2     1  UNL1       -0.0459
     11 C          63.5680   90.2724   12.7405 C.ar    1  UNL1        0.0824
     12 C          63.4510   90.3607   14.2333 C.ar    1  UNL1       -0.0017
     13 C          62.4490   89.6375   15.0835 C.3     1  UNL1        0.0323
     14 C          64.5120   91.2992   14.7267 C.ar    1  UNL1        0.0716
     15 BR         64.7572   91.6793   16.1569 Br      1  UNL1       -0.0456
     16 O          66.4384   92.7491   13.5725 O.3     1  UNL1       -0.4692
     17 C          67.8386   92.2322   13.7217 C.3     1  UNL1        0.2061
     18 C          68.0834   93.4988   15.9769 C.3     1  UNL1        0.0040
     19 C          68.6151   92.5200   14.9724 C.3     1  UNL1        0.0474
     20 C          62.7019   83.4657   12.3295 C.ar    1  UNL1       -0.0227
     21 C          62.3968   82.8222   13.6496 C.ar    1  UNL1       -0.0043
     22 C          62.3964   81.3273   13.7731 C.ar    1  UNL1       -0.0006
     23 C          62.7011   80.4759   12.5763 C.ar    1  UNL1       -0.0030
     24 C          63.0063   81.1194   11.2561 C.ar    1  UNL1       -0.0069
     25 C          63.0067   82.6143   11.1327 C.ar    1  UNL1       -0.0072
     26 C          63.3110   80.2680   10.0594 C.3     1  UNL1        0.0922
     27 N          62.5704   78.9810    9.8463 N.3     1  UNL1       -0.3175
     28 H          62.8101   78.3240   10.5888 H       1  UNL1        0.1192
     29 H          62.8312   78.5840    8.9437 H       1  UNL1        0.1192
@<TRIPOS>BOND
     1    18    19    1
     2    19    17    1
     3    17    16    1
     4    16     9    1
     5     9    10   ar
     6    10    11   ar
     7    11     1    1
     8     1     2    2
     9     1     3   am
    10     3     4    1
    11     4     5    1
    12     5     6    1
    13     6    20    1
    14    20    21   ar
    15    21    22   ar
    16    22    23   ar
    17    23    24   ar
    18    24    26    1
    19    26    27    1
    20    24    25   ar
    21     6     7    1
    22     7     8    1
    23    11    12   ar
    24    12    13    1
    25    12    14   ar
    26    14    15    1
    27    14     9   ar
    28     8     3    1
    29    25    20   ar
    30    27    28    1
    31    27    29    1
@<TRIPOS>MOLECULE
*****
 29 31 0 0 0
SMALL
GASTEIGER

@<TRIPOS>ATOM
      1 C          62.4655   89.1963   11.2669 C.2     1  UNL1        0.2548
      2 O          61.6036   89.7718   10.1825 O.2     1  UNL1       -0.2694
      3 N          62.4981   87.7135   11.4916 N.am    1  UNL1       -0.2757
      4 C          61.6688   86.8063   10.6319 C.3     1  UNL1        0.0941
      5 C          61.7014   85.3236   10.8566 C.3     1  UNL1        0.0259
      6 C          62.5633   84.7482   11.9410 C.3     1  UNL1        0.0257
      7 C          63.3926   85.6554   12.8007 C.3     1  UNL1        0.0259
      8 C          63.3600   87.1381   12.5760 C.3     1  UNL1        0.0941
      9 C          64.3462   91.1264   14.0602 C.ar    1  UNL1        0.1747
     10 S          63.4187   90.0330   13.6199 S.2     1  UNL1       -0.0459
     11 C          63.2948   90.1035   12.1267 C.ar    1  UNL1        0.0824
     12 C          64.1458   91.2406   11.6442 C.ar    1  UNL1       -0.0017
     13 C          64.3169   91.6702   10.2172 C.3     1  UNL1        0.0323
     14 C          64.7957   91.8728   12.8391 C.ar    1  UNL1        0.0716
     15 BR         65.7307   93.0455   12.8170 Br      1  UNL1       -0.0456
     16 O          64.7530   91.4217   15.4735 O.3     1  UNL1       -0.4692
     17 C          63.8206   91.1030   16.6045 C.3     1  UNL1        0.2061
     18 C          63.2603   88.5950   16.9860 C.3     1  UNL1        0.0040
     19 C          62.8646   89.9531   16.4872 C.3     1  UNL1        0.0474
     20 C          62.5959   83.2654   12.1656 C.ar    1  UNL1       -0.0227
     21 C          62.3950   82.7112   13.5449 C.ar    1  UNL1       -0.0043
     22 C          62.4276   81.2284   13.7696 C.ar    1  UNL1       -0.0006
     23 C          62.6611   80.2999   12.6149 C.ar    1  UNL1       -0.0030
     24 C          62.8620   80.8542   11.2355 C.ar    1  UNL1       -0.0069
     25 C          62.8294   82.3369   11.0109 C.ar    1  UNL1       -0.0072
     26 C          63.0956   79.9256   10.0808 C.3     1  UNL1        0.0922
     27 N          62.6866   78.4859   10.1816 N.3     1  UNL1       -0.3175
     28 H          63.2521   78.0208   10.8917 H       1  UNL1        0.1192
     29 H          62.8281   78.0285    9.2810 H       1  UNL1        0.1192
@<TRIPOS>BOND
     1    18    19    1
     2    19    17    1
     3    17    16    1
     4    16     9    1
     5     9    10   ar
     6    10    11   ar
     7    11     1    1
     8     1     2    2
     9     1     3   am
    10     3     4    1
    11     4     5    1
    12     5     6    1
    13     6    20    1
    14    20    21   ar
    15    21    22   ar
    16    22    23   ar
    17    23    24   ar
    18    24    26    1
    19    26    27    1
    20    24    25   ar
    21     6     7    1
    22     7     8    1
    23    11    12   ar
    24    12    13    1
    25    12    14   ar
    26    14    15    1
    27    14     9   ar
    28     8     3    1
    29    25    20   ar
    30    27    28    1
    31    27    29    1
@<TRIPOS>MOLECULE
*****
 29 31 0 0 0
SMALL
GASTEIGER

@<TRIPOS>ATOM
      1 C          63.5385   90.8108   14.0313 C.2     1  UNL1        0.2548
      2 O          63.0868   90.4722   15.4210 O.2     1  UNL1       -0.2694
      3 N          62.7867   90.2780   12.8476 N.am    1  UNL1       -0.2757
      4 C          61.5834   89.4066   13.0537 C.3     1  UNL1        0.0941
      5 C          60.8317   88.8738   11.8700 C.3     1  UNL1        0.0259
      6 C          61.2833   89.2124   10.4803 C.3     1  UNL1        0.0257
      7 C          62.4867   90.0839   10.2742 C.3     1  UNL1        0.0259
      8 C          63.2384   90.6167   11.4579 C.3     1  UNL1        0.0941
      9 C          66.5006   92.9760   12.7653 C.ar    1  UNL1        0.1747
     10 S          65.2987   92.1180   12.5023 S.2     1  UNL1       -0.0459
     11 C          64.7418   91.6823   13.8252 C.ar    1  UNL1        0.0824
     12 C          65.5996   92.2710   14.9058 C.ar    1  UNL1       -0.0017
     13 C          65.4046   92.0917   16.3822 C.3     1  UNL1        0.0323
     14 C          66.6866   93.0706   14.2508 C.ar    1  UNL1        0.0716
     15 BR         67.7694   93.8312   14.9572 Br      1  UNL1       -0.0456
     16 O          67.3649   93.6255   11.7255 O.3     1  UNL1       -0.4692
     17 C          66.8936   93.7087   10.3039 C.3     1  UNL1        0.2061
     18 C          68.6810   92.3557    8.9907 C.3     1  UNL1        0.0040
     19 C          67.8813   93.6106    9.1792 C.3     1  UNL1        0.0474
     20 C          60.5316   88.6796    9.2966 C.ar    1  UNL1       -0.0227
     21 C          60.1911   87.2209    9.2191 C.ar    1  UNL1       -0.0043
     22 C          59.4393   86.6880    8.0354 C.ar    1  UNL1       -0.0006
     23 C          59.0281   87.6140    6.9293 C.ar    1  UNL1       -0.0030
     24 C          59.3686   89.0728    7.0069 C.ar    1  UNL1       -0.0069
     25 C          60.1203   89.6056    8.1906 C.ar    1  UNL1       -0.0072
     26 C          58.9574   89.9988    5.9008 C.3     1  UNL1        0.0922
     27 N          59.9260   91.0168    5.3758 N.3     1  UNL1       -0.3175
     28 H          60.1287   91.7009    6.1047 H       1  UNL1        0.1192
     29 H          59.5183   91.4899    4.5694 H       1  UNL1        0.1192
@<TRIPOS>BOND
     1    18    19    1
     2    19    17    1
     3    17    16    1
     4    16     9    1
     5     9    10   ar
     6    10    11   ar
     7    11     1    1
     8     1     2    2
     9     1     3   am
    10     3     4    1
    11     4     5    1
    12     5     6    1
    13     6    20    1
    14    20    21   ar
    15    21    22   ar
    16    22    23   ar
    17    23    24   ar
    18    24    26    1
    19    26    27    1
    20    24    25   ar
    21     6     7    1
    22     7     8    1
    23    11    12   ar
    24    12    13    1
    25    12    14   ar
    26    14    15    1
    27    14     9   ar
    28     8     3    1
    29    25    20   ar
    30    27    28    1
    31    27    29    1
