@<TRIPOS>MOLECULE
*****
 43 46 0 0 0
SMALL
GASTEIGER

@<TRIPOS>ATOM
      1 N          63.1782   89.3220   12.5769 N.ar    1  UNL1       -0.2470
      2 C          62.3209   88.9812   11.3942 C.ar    1  UNL1        0.2657
      3 O          61.6865   90.0752   10.5876 O.2     1  UNL1       -0.2668
      4 C          62.0979   87.5463   11.0183 C.ar    1  UNL1        0.0744
      5 C          62.7322   86.4523   11.8249 C.ar    1  UNL1        0.0848
      6 N          63.5896   86.7932   13.0076 N.ar    1  UNL1       -0.2755
      7 C          63.8126   88.2280   13.3835 C.ar    1  UNL1        0.3341
      8 O          64.6700   88.5690   14.5662 O.2     1  UNL1       -0.2462
      9 C          61.2404   87.2054    9.8356 C.ar    1  UNL1        0.0166
     10 C          59.8841   87.8288    9.6880 C.ar    1  UNL1        0.0010
     11 C          59.0267   87.4879    8.5054 C.ar    1  UNL1        0.0001
     12 C          59.5256   86.5236    7.4703 C.ar    1  UNL1        0.0009
     13 C          60.8820   85.9003    7.6179 C.ar    1  UNL1        0.0114
     14 C          61.7394   86.2412    8.8005 C.ar    1  UNL1        0.0578
     15 CL         63.0957   85.6179    8.9481 Cl      1  UNL1       -0.0822
     16 C          63.4013   90.7570   12.9529 C.3     1  UNL1        0.1337
     17 C          64.7137   91.4166   12.6491 C.3     1  UNL1        0.1000
     18 C          65.6446   91.7847   13.7663 C.ar    1  UNL1       -0.0061
     19 C          67.1159   91.9138   13.5049 C.ar    1  UNL1       -0.0029
     20 C          68.0467   92.2818   14.6221 C.ar    1  UNL1       -0.0003
     21 C          67.5061   92.5207   16.0007 C.ar    1  UNL1       -0.0000
     22 C          66.0347   92.3916   16.2622 C.ar    1  UNL1       -0.0003
     23 C          65.1040   92.0236   15.1450 C.ar    1  UNL1       -0.0029
     24 N          65.0954   91.7082   11.2281 N.3     1  UNL1       -0.2935
     25 H          66.0558   91.3860   11.1091 H       1  UNL1        0.1236
     26 C          65.0436   93.1155   10.7113 C.3     1  UNL1        0.0692
     27 C          66.2970   93.9368   10.6450 C.3     1  UNL1        0.0230
     28 C          67.2162   93.8087    9.4666 C.3     1  UNL1        0.0431
     29 O          68.7350   92.1997    8.1049 O.co2   1  UNL1       -0.5492
     30 C          68.2321   92.7059    9.4242 C.2     1  UNL1        0.0504
     31 O          68.7451   92.1092   10.7013 O.co2   1  UNL1       -0.5492
     32 C          64.2240   85.6992   13.8143 C.3     1  UNL1        0.1394
     33 C          63.6343   84.3200   13.8022 C.ar    1  UNL1        0.0319
     34 C          63.9737   83.3688   12.6931 C.ar    1  UNL1        0.1379
     35 F          64.9029   83.7968   11.5961 F       1  UNL1       -0.2044
     36 C          63.3840   81.9897   12.6811 C.ar    1  UNL1        0.0294
     37 C          62.4549   81.5617   13.7781 C.ar    1  UNL1        0.0022
     38 C          62.1154   82.5128   14.8871 C.ar    1  UNL1        0.0037
     39 C          62.7051   83.8920   14.8992 C.ar    1  UNL1        0.0714
     40 C          62.3656   84.8432   16.0083 C.3     1  UNL1        0.4184
     41 F          62.0261   85.7943   17.1173 F       1  UNL1       -0.1659
     42 F          63.7844   84.7859   16.4917 F       1  UNL1       -0.1659
     43 F          60.9468   84.9004   15.5249 F       1  UNL1       -0.1659
@<TRIPOS>UNITY_ATOM_ATTR
29 1
charge -1
@<TRIPOS>BOND
     1    29    30   ar
     2    30    31   ar
     3    30    28    1
     4    28    27    1
     5    27    26    1
     6    26    24    1
     7    24    17    1
     8    17    16    1
     9    16     1    1
    10     1     2   ar
    11     2     3    2
    12     2     4   ar
    13     4     9    1
    14     9    10   ar
    15    10    11   ar
    16    11    12   ar
    17    12    13   ar
    18    13    14   ar
    19    14    15    1
    20     4     5   ar
    21     5     6   ar
    22     6    32    1
    23    32    33    1
    24    33    34   ar
    25    34    35    1
    26    34    36   ar
    27    36    37   ar
    28    37    38   ar
    29    38    39   ar
    30    39    40    1
    31    40    41    1
    32    40    42    1
    33    40    43    1
    34     6     7   ar
    35     7     8    2
    36    17    18    1
    37    18    19   ar
    38    19    20   ar
    39    20    21   ar
    40    21    22   ar
    41    22    23   ar
    42     7     1   ar
    43    23    18   ar
    44    14     9   ar
    45    39    33   ar
    46    24    25    1
@<TRIPOS>MOLECULE
*****
 43 46 0 0 0
SMALL
GASTEIGER

@<TRIPOS>ATOM
      1 N          63.3303   89.5178   12.6367 N.ar    1  UNL1       -0.2470
      2 C          62.5242   89.0967   11.4439 C.ar    1  UNL1        0.2657
      3 O          61.9326   90.1327   10.5348 O.2     1  UNL1       -0.2668
      4 C          62.3096   87.6394   11.1604 C.ar    1  UNL1        0.0744
      5 C          62.9012   86.6034   12.0695 C.ar    1  UNL1        0.0848
      6 N          63.7073   87.0245   13.2623 N.ar    1  UNL1       -0.2755
      7 C          63.9219   88.4817   13.5459 C.ar    1  UNL1        0.3341
      8 O          64.7281   88.9029   14.7387 O.2     1  UNL1       -0.2462
      9 C          61.5035   87.2182    9.9675 C.ar    1  UNL1        0.0166
     10 C          62.1429   86.4101    8.8776 C.ar    1  UNL1        0.0010
     11 C          61.3368   85.9889    7.6848 C.ar    1  UNL1        0.0001
     12 C          59.8912   86.3758    7.5819 C.ar    1  UNL1        0.0009
     13 C          59.2517   87.1840    8.6719 C.ar    1  UNL1        0.0114
     14 C          60.0579   87.6052    9.8647 C.ar    1  UNL1        0.0578
     15 CL         59.4185   88.4133   10.9547 Cl      1  UNL1       -0.0822
     16 C          63.5450   90.9751   12.9203 C.3     1  UNL1        0.1337
     17 C          64.8422   91.6288   12.5466 C.3     1  UNL1        0.1000
     18 C          65.8687   91.9160   13.6021 C.ar    1  UNL1       -0.0061
     19 C          65.4359   92.2307   15.0033 C.ar    1  UNL1       -0.0029
     20 C          66.4624   92.5180   16.0586 C.ar    1  UNL1       -0.0003
     21 C          67.9217   92.4905   15.7127 C.ar    1  UNL1       -0.0000
     22 C          68.3545   92.1758   14.3115 C.ar    1  UNL1       -0.0003
     23 C          67.3281   91.8885   13.2561 C.ar    1  UNL1       -0.0029
     24 N          65.1131   91.9952   11.1175 N.3     1  UNL1       -0.2935
     25 H          65.7870   91.3170   10.7623 H       1  UNL1        0.1236
     26 C          65.6488   93.3552   10.7806 C.3     1  UNL1        0.0692
     27 C          66.6556   93.5132    9.6799 C.3     1  UNL1        0.0230
     28 C          67.6556   94.6299    9.7328 C.3     1  UNL1        0.0431
     29 O          67.2670   96.6535    8.1504 O.co2   1  UNL1       -0.5492
     30 C          67.2100   96.0464    9.5209 C.2     1  UNL1        0.0504
     31 O          66.7073   96.8559   10.6793 O.co2   1  UNL1       -0.5492
     32 C          64.2989   85.9884   14.1715 C.3     1  UNL1        0.1394
     33 C          63.7284   84.6015   14.1995 C.ar    1  UNL1        0.0319
     34 C          64.1140   83.6104   13.1416 C.ar    1  UNL1        0.1379
     35 F          65.0701   84.0063   12.0557 F       1  UNL1       -0.2044
     36 C          63.5436   82.2234   13.1696 C.ar    1  UNL1        0.0294
     37 C          62.5875   81.8274   14.2555 C.ar    1  UNL1        0.0022
     38 C          62.2019   82.8184   15.3133 C.ar    1  UNL1        0.0037
     39 C          62.7724   84.2055   15.2854 C.ar    1  UNL1        0.0714
     40 C          62.3868   85.1965   16.3433 C.3     1  UNL1        0.4184
     41 F          62.0012   86.1875   17.4012 F       1  UNL1       -0.1659
     42 F          60.9740   85.1847   15.8394 F       1  UNL1       -0.1659
     43 F          63.7995   85.2083   16.8471 F       1  UNL1       -0.1659
@<TRIPOS>UNITY_ATOM_ATTR
29 1
charge -1
@<TRIPOS>BOND
     1    29    30   ar
     2    30    31   ar
     3    30    28    1
     4    28    27    1
     5    27    26    1
     6    26    24    1
     7    24    17    1
     8    17    16    1
     9    16     1    1
    10     1     2   ar
    11     2     3    2
    12     2     4   ar
    13     4     9    1
    14     9    10   ar
    15    10    11   ar
    16    11    12   ar
    17    12    13   ar
    18    13    14   ar
    19    14    15    1
    20     4     5   ar
    21     5     6   ar
    22     6    32    1
    23    32    33    1
    24    33    34   ar
    25    34    35    1
    26    34    36   ar
    27    36    37   ar
    28    37    38   ar
    29    38    39   ar
    30    39    40    1
    31    40    41    1
    32    40    42    1
    33    40    43    1
    34     6     7   ar
    35     7     8    2
    36    17    18    1
    37    18    19   ar
    38    19    20   ar
    39    20    21   ar
    40    21    22   ar
    41    22    23   ar
    42     7     1   ar
    43    23    18   ar
    44    14     9   ar
    45    39    33   ar
    46    24    25    1
@<TRIPOS>MOLECULE
*****
 43 46 0 0 0
SMALL
GASTEIGER

@<TRIPOS>ATOM
      1 N          63.4980   86.7963   12.9555 N.ar    1  UNL1       -0.2470
      2 C          62.6308   86.6125   11.7456 C.ar    1  UNL1        0.2657
      3 O          62.2949   85.2314   11.2663 O.2     1  UNL1       -0.2668
      4 C          62.0994   87.8099   11.0149 C.ar    1  UNL1        0.0744
      5 C          62.4353   89.1910   11.4942 C.ar    1  UNL1        0.0848
      6 N          63.3025   89.3747   12.7042 N.ar    1  UNL1       -0.2755
      7 C          63.8339   88.1774   13.4348 C.ar    1  UNL1        0.3341
      8 O          64.7012   88.3611   14.6449 O.2     1  UNL1       -0.2462
      9 C          61.2321   87.6261    9.8049 C.ar    1  UNL1        0.0166
     10 C          61.2944   86.3465    9.0248 C.ar    1  UNL1        0.0010
     11 C          60.4271   86.1627    7.8148 C.ar    1  UNL1        0.0001
     12 C          59.4975   87.2587    7.3849 C.ar    1  UNL1        0.0009
     13 C          59.4353   88.5384    8.1649 C.ar    1  UNL1        0.0114
     14 C          60.3026   88.7221    9.3750 C.ar    1  UNL1        0.0578
     15 CL         60.2403   90.0018   10.1551 Cl      1  UNL1       -0.0822
     16 C          64.0295   85.5989   13.6863 C.3     1  UNL1        0.1337
     17 C          63.0868   84.6784   14.4031 C.3     1  UNL1        0.1000
     18 C          62.8936   83.2734   13.9143 C.ar    1  UNL1       -0.0061
     19 C          63.7479   82.7423   12.8016 C.ar    1  UNL1       -0.0029
     20 C          63.5547   81.3374   12.3129 C.ar    1  UNL1       -0.0003
     21 C          62.5073   80.4636   12.9369 C.ar    1  UNL1       -0.0000
     22 C          61.6531   80.9947   14.0496 C.ar    1  UNL1       -0.0003
     23 C          61.8462   82.3996   14.5383 C.ar    1  UNL1       -0.0029
     24 N          62.3372   85.1627   15.6087 N.3     1  UNL1       -0.2935
     25 H          61.6540   85.8435   15.2767 H       1  UNL1        0.1236
     26 C          63.0771   85.8092   16.7422 C.3     1  UNL1        0.0692
     27 C          62.4781   86.9853   17.4549 C.3     1  UNL1        0.0230
     28 C          63.1981   88.3012   17.4668 C.3     1  UNL1        0.0431
     29 O          61.3942   89.3033   15.8884 O.co2   1  UNL1       -0.5492
     30 C          62.6443   89.4661   16.7011 C.2     1  UNL1        0.0504
     31 O          63.3407   90.7937   16.7481 O.co2   1  UNL1       -0.5492
     32 C          63.6384   90.7559   13.1835 C.3     1  UNL1        0.1394
     33 C          64.6491   91.5813   12.4439 C.ar    1  UNL1        0.0319
     34 C          64.4494   91.8848   10.9885 C.ar    1  UNL1        0.1379
     35 F          63.2389   91.3628   10.2728 F       1  UNL1       -0.2044
     36 C          65.4601   92.7102   10.2489 C.ar    1  UNL1        0.0294
     37 C          66.6706   93.2322   10.9646 C.ar    1  UNL1        0.0022
     38 C          66.8704   92.9287   12.4199 C.ar    1  UNL1        0.0037
     39 C          65.8596   92.1032   13.1596 C.ar    1  UNL1        0.0714
     40 C          66.0594   91.7998   14.6149 C.3     1  UNL1        0.4184
     41 F          66.2591   91.4963   16.0702 F       1  UNL1       -0.1659
     42 F          66.7543   90.5208   14.2528 F       1  UNL1       -0.1659
     43 F          65.3644   93.0788   14.9770 F       1  UNL1       -0.1659
@<TRIPOS>UNITY_ATOM_ATTR
29 1
charge -1
@<TRIPOS>BOND
     1    29    30   ar
     2    30    31   ar
     3    30    28    1
     4    28    27    1
     5    27    26    1
     6    26    24    1
     7    24    17    1
     8    17    16    1
     9    16     1    1
    10     1     2   ar
    11     2     3    2
    12     2     4   ar
    13     4     9    1
    14     9    10   ar
    15    10    11   ar
    16    11    12   ar
    17    12    13   ar
    18    13    14   ar
    19    14    15    1
    20     4     5   ar
    21     5     6   ar
    22     6    32    1
    23    32    33    1
    24    33    34   ar
    25    34    35    1
    26    34    36   ar
    27    36    37   ar
    28    37    38   ar
    29    38    39   ar
    30    39    40    1
    31    40    41    1
    32    40    42    1
    33    40    43    1
    34     6     7   ar
    35     7     8    2
    36    17    18    1
    37    18    19   ar
    38    19    20   ar
    39    20    21   ar
    40    21    22   ar
    41    22    23   ar
    42     7     1   ar
    43    23    18   ar
    44    14     9   ar
    45    39    33   ar
    46    24    25    1
@<TRIPOS>MOLECULE
*****
 43 46 0 0 0
SMALL
GASTEIGER

@<TRIPOS>ATOM
      1 N          62.9813   88.8873   12.8732 N.ar    1  UNL1       -0.2470
      2 C          62.1498   88.6639   11.6449 C.ar    1  UNL1        0.2657
      3 O          61.4310   89.8150   11.0061 O.2     1  UNL1       -0.2668
      4 C          62.0373   87.2892   11.0554 C.ar    1  UNL1        0.0744
      5 C          62.7561   86.1380   11.6942 C.ar    1  UNL1        0.0848
      6 N          63.5875   86.3615   12.9225 N.ar    1  UNL1       -0.2755
      7 C          63.7001   87.7362   13.5120 C.ar    1  UNL1        0.3341
      8 O          64.5316   87.9597   14.7403 O.2     1  UNL1       -0.2462
      9 C          61.2058   87.0656    9.8270 C.ar    1  UNL1        0.0166
     10 C          59.8794   87.7515    9.6841 C.ar    1  UNL1        0.0010
     11 C          59.0480   87.5280    8.4559 C.ar    1  UNL1        0.0001
     12 C          59.5429   86.6186    7.3704 C.ar    1  UNL1        0.0009
     13 C          60.8692   85.9327    7.5133 C.ar    1  UNL1        0.0114
     14 C          61.7007   86.1563    8.7416 C.ar    1  UNL1        0.0578
     15 CL         63.0270   85.4704    8.8845 Cl      1  UNL1       -0.0822
     16 C          63.0939   90.2621   13.4627 C.3     1  UNL1        0.1337
     17 C          64.4399   90.9078   13.6082 C.3     1  UNL1        0.1000
     18 C          65.0228   91.6915   12.4696 C.ar    1  UNL1       -0.0061
     19 C          64.2775   91.7964   11.1721 C.ar    1  UNL1       -0.0029
     20 C          64.8604   92.5800   10.0337 C.ar    1  UNL1       -0.0003
     21 C          66.1886   93.2587   10.1927 C.ar    1  UNL1       -0.0000
     22 C          66.9339   93.1538   11.4902 C.ar    1  UNL1       -0.0003
     23 C          66.3510   92.3702   12.6287 C.ar    1  UNL1       -0.0029
     24 N          65.2031   90.7699   14.8921 N.3     1  UNL1       -0.2935
     25 H          64.8452   89.9369   15.3594 H       1  UNL1        0.1236
     26 C          65.1773   91.8781   15.9027 C.3     1  UNL1        0.0692
     27 C          66.4530   92.5584   16.3025 C.3     1  UNL1        0.0230
     28 C          67.7720   92.0016   15.8552 C.3     1  UNL1        0.0431
     29 O          69.0895   94.2332   16.0390 O.co2   1  UNL1       -0.5492
     30 C          68.8432   92.9230   15.3516 C.2     1  UNL1        0.0504
     31 O          69.6679   92.5342   14.1606 O.co2   1  UNL1       -0.5492
     32 C          64.3064   85.2103   13.5613 C.3     1  UNL1        0.1394
     33 C          63.6992   83.8390   13.5344 C.ar    1  UNL1        0.0319
     34 C          64.0185   82.8992   12.4097 C.ar    1  UNL1        0.1379
     35 F          64.9451   83.3308   11.3119 F       1  UNL1       -0.2044
     36 C          63.4114   81.5279   12.3829 C.ar    1  UNL1        0.0294
     37 C          62.4848   81.0963   13.4807 C.ar    1  UNL1        0.0022
     38 C          62.1654   82.0360   14.6053 C.ar    1  UNL1        0.0037
     39 C          62.7726   83.4074   14.6322 C.ar    1  UNL1        0.0714
     40 C          62.4532   84.3471   15.7568 C.3     1  UNL1        0.4184
     41 F          62.1338   85.2868   16.8815 F       1  UNL1       -0.1659
     42 F          61.1368   84.6693   15.1138 F       1  UNL1       -0.1659
     43 F          63.7695   84.0250   16.3998 F       1  UNL1       -0.1659
@<TRIPOS>UNITY_ATOM_ATTR
29 1
charge -1
@<TRIPOS>BOND
     1    29    30   ar
     2    30    31   ar
     3    30    28    1
     4    28    27    1
     5    27    26    1
     6    26    24    1
     7    24    17    1
     8    17    16    1
     9    16     1    1
    10     1     2   ar
    11     2     3    2
    12     2     4   ar
    13     4     9    1
    14     9    10   ar
    15    10    11   ar
    16    11    12   ar
    17    12    13   ar
    18    13    14   ar
    19    14    15    1
    20     4     5   ar
    21     5     6   ar
    22     6    32    1
    23    32    33    1
    24    33    34   ar
    25    34    35    1
    26    34    36   ar
    27    36    37   ar
    28    37    38   ar
    29    38    39   ar
    30    39    40    1
    31    40    41    1
    32    40    42    1
    33    40    43    1
    34     6     7   ar
    35     7     8    2
    36    17    18    1
    37    18    19   ar
    38    19    20   ar
    39    20    21   ar
    40    21    22   ar
    41    22    23   ar
    42     7     1   ar
    43    23    18   ar
    44    14     9   ar
    45    39    33   ar
    46    24    25    1
@<TRIPOS>MOLECULE
*****
 43 46 0 0 0
SMALL
GASTEIGER

@<TRIPOS>ATOM
      1 N          63.3521   88.5799   13.2321 N.ar    1  UNL1       -0.2470
      2 C          62.4829   88.5573   12.0099 C.ar    1  UNL1        0.2657
      3 O          61.9281   89.8379   11.4603 O.2     1  UNL1       -0.2668
      4 C          62.1684   87.2539   11.3373 C.ar    1  UNL1        0.0744
      5 C          62.7231   85.9733   11.8870 C.ar    1  UNL1        0.0848
      6 N          63.5923   85.9959   13.1092 N.ar    1  UNL1       -0.2755
      7 C          63.9068   87.2992   13.7818 C.ar    1  UNL1        0.3341
      8 O          64.7761   87.3219   15.0041 O.2     1  UNL1       -0.2462
      9 C          61.2991   87.2313   10.1150 C.ar    1  UNL1        0.0166
     10 C          61.7867   86.5699    8.8601 C.ar    1  UNL1        0.0010
     11 C          60.9175   86.5472    7.6379 C.ar    1  UNL1        0.0001
     12 C          59.5606   87.1859    7.6705 C.ar    1  UNL1        0.0009
     13 C          59.0730   87.8473    8.9254 C.ar    1  UNL1        0.0114
     14 C          59.9423   87.8700   10.1477 C.ar    1  UNL1        0.0578
     15 CL         59.4547   88.5313   11.4026 Cl      1  UNL1       -0.0822
     16 C          63.6666   89.8833   13.9048 C.3     1  UNL1        0.1337
     17 C          64.6242   90.8450   13.2660 C.3     1  UNL1        0.1000
     18 C          65.7245   91.4596   14.0795 C.ar    1  UNL1       -0.0061
     19 C          67.1149   91.5382   13.5224 C.ar    1  UNL1       -0.0029
     20 C          68.2152   92.1528   14.3359 C.ar    1  UNL1       -0.0003
     21 C          67.9249   92.6887   15.7065 C.ar    1  UNL1       -0.0000
     22 C          66.5344   92.6101   16.2636 C.ar    1  UNL1       -0.0003
     23 C          65.4342   91.9956   15.4501 C.ar    1  UNL1       -0.0029
     24 N          64.4815   91.1922   11.8137 N.3     1  UNL1       -0.2935
     25 H          65.0917   90.5580   11.2980 H       1  UNL1        0.1236
     26 C          64.7988   92.5795   11.3396 C.3     1  UNL1        0.0692
     27 C          65.9006   92.7987   10.3456 C.3     1  UNL1        0.0230
     28 C          67.0073   93.7633   10.6532 C.3     1  UNL1        0.0431
     29 O          66.0356   96.0870   11.2904 O.co2   1  UNL1       -0.5492
     30 C          66.8330   95.2237   10.3583 C.2     1  UNL1        0.0504
     31 O          67.4560   95.8207    9.1314 O.co2   1  UNL1       -0.5492
     32 C          64.1470   84.7152   13.6589 C.3     1  UNL1        0.1394
     33 C          63.3237   83.4621   13.6168 C.ar    1  UNL1        0.0319
     34 C          62.4636   83.0900   14.7880 C.ar    1  UNL1        0.1379
     35 F          62.4268   83.9712   16.0014 F       1  UNL1       -0.2044
     36 C          61.6403   81.8369   14.7459 C.ar    1  UNL1        0.0294
     37 C          61.6771   80.9558   13.5325 C.ar    1  UNL1        0.0022
     38 C          62.5372   81.3277   12.3613 C.ar    1  UNL1        0.0037
     39 C          63.3606   82.5809   12.4034 C.ar    1  UNL1        0.0714
     40 C          64.2207   82.9529   11.2322 C.3     1  UNL1        0.4184
     41 F          65.0808   83.3249   10.0610 F       1  UNL1       -0.1659
     42 F          63.0377   83.5906   10.5660 F       1  UNL1       -0.1659
     43 F          65.4036   82.3152   11.8984 F       1  UNL1       -0.1659
@<TRIPOS>UNITY_ATOM_ATTR
29 1
charge -1
@<TRIPOS>BOND
     1    29    30   ar
     2    30    31   ar
     3    30    28    1
     4    28    27    1
     5    27    26    1
     6    26    24    1
     7    24    17    1
     8    17    16    1
     9    16     1    1
    10     1     2   ar
    11     2     3    2
    12     2     4   ar
    13     4     9    1
    14     9    10   ar
    15    10    11   ar
    16    11    12   ar
    17    12    13   ar
    18    13    14   ar
    19    14    15    1
    20     4     5   ar
    21     5     6   ar
    22     6    32    1
    23    32    33    1
    24    33    34   ar
    25    34    35    1
    26    34    36   ar
    27    36    37   ar
    28    37    38   ar
    29    38    39   ar
    30    39    40    1
    31    40    41    1
    32    40    42    1
    33    40    43    1
    34     6     7   ar
    35     7     8    2
    36    17    18    1
    37    18    19   ar
    38    19    20   ar
    39    20    21   ar
    40    21    22   ar
    41    22    23   ar
    42     7     1   ar
    43    23    18   ar
    44    14     9   ar
    45    39    33   ar
    46    24    25    1
@<TRIPOS>MOLECULE
*****
 43 46 0 0 0
SMALL
GASTEIGER

@<TRIPOS>ATOM
      1 N          63.6361   86.1970   13.2182 N.ar    1  UNL1       -0.2470
      2 C          62.8453   85.9509   11.9676 C.ar    1  UNL1        0.2657
      3 O          62.6081   84.5474   11.4943 O.2     1  UNL1       -0.2668
      4 C          62.2917   87.1082   11.1904 C.ar    1  UNL1        0.0744
      5 C          62.5289   88.5116   11.6637 C.ar    1  UNL1        0.0848
      6 N          63.3197   88.7578   12.9143 N.ar    1  UNL1       -0.2755
      7 C          63.8733   87.6005   13.6915 C.ar    1  UNL1        0.3341
      8 O          64.6642   87.8466   14.9422 O.2     1  UNL1       -0.2462
      9 C          61.5009   86.8621    9.9397 C.ar    1  UNL1        0.0166
     10 C          62.0832   86.0302    8.8357 C.ar    1  UNL1        0.0010
     11 C          61.2924   85.7841    7.5851 C.ar    1  UNL1        0.0001
     12 C          59.9193   86.3698    7.4385 C.ar    1  UNL1        0.0009
     13 C          59.3369   87.2017    8.5425 C.ar    1  UNL1        0.0114
     14 C          60.1278   87.4478    9.7932 C.ar    1  UNL1        0.0578
     15 CL         59.5455   88.2796   10.8973 Cl      1  UNL1       -0.0822
     16 C          64.1898   85.0397   13.9955 C.3     1  UNL1        0.1337
     17 C          63.2639   84.1279   14.7448 C.3     1  UNL1        0.1000
     18 C          62.9440   82.7687   14.1969 C.ar    1  UNL1       -0.0061
     19 C          61.6447   82.1058   14.5467 C.ar    1  UNL1       -0.0029
     20 C          61.3249   80.7466   13.9989 C.ar    1  UNL1       -0.0003
     21 C          62.3043   80.0502   13.1012 C.ar    1  UNL1       -0.0000
     22 C          63.6036   80.7131   12.7514 C.ar    1  UNL1       -0.0003
     23 C          63.9235   82.0723   13.2993 C.ar    1  UNL1       -0.0029
     24 N          62.6580   84.5754   16.0419 N.3     1  UNL1       -0.2935
     25 H          61.7070   84.8795   15.8333 H       1  UNL1        0.1236
     26 C          63.3019   85.6774   16.8299 C.3     1  UNL1        0.0692
     27 C          62.4674   86.8029   17.3655 C.3     1  UNL1        0.0230
     28 C          63.0873   88.1474   17.6067 C.3     1  UNL1        0.0431
     29 O          61.3839   89.2541   15.9870 O.co2   1  UNL1       -0.5492
     30 C          62.6347   89.3355   16.8108 C.2     1  UNL1        0.0504
     31 O          63.4329   90.6052   16.8388 O.co2   1  UNL1       -0.5492
     32 C          63.5569   90.1612   13.3877 C.3     1  UNL1        0.1394
     33 C          64.5337   91.0413   12.6656 C.ar    1  UNL1        0.0319
     34 C          65.8477   91.3840   13.3027 C.ar    1  UNL1        0.1379
     35 F          66.1850   90.8467   14.6619 F       1  UNL1       -0.2044
     36 C          66.8244   92.2641   12.5806 C.ar    1  UNL1        0.0294
     37 C          66.4872   92.8015   11.2214 C.ar    1  UNL1        0.0022
     38 C          65.1732   92.4588   10.5843 C.ar    1  UNL1        0.0037
     39 C          64.1964   91.5787   11.3064 C.ar    1  UNL1        0.0714
     40 C          62.8824   91.2360   10.6692 C.3     1  UNL1        0.4184
     41 F          61.5685   90.8933   10.0321 F       1  UNL1       -0.1659
     42 F          62.1670   91.6557   11.9189 F       1  UNL1       -0.1659
     43 F          63.5979   90.8162    9.4195 F       1  UNL1       -0.1659
@<TRIPOS>UNITY_ATOM_ATTR
29 1
charge -1
@<TRIPOS>BOND
     1    29    30   ar
     2    30    31   ar
     3    30    28    1
     4    28    27    1
     5    27    26    1
     6    26    24    1
     7    24    17    1
     8    17    16    1
     9    16     1    1
    10     1     2   ar
    11     2     3    2
    12     2     4   ar
    13     4     9    1
    14     9    10   ar
    15    10    11   ar
    16    11    12   ar
    17    12    13   ar
    18    13    14   ar
    19    14    15    1
    20     4     5   ar
    21     5     6   ar
    22     6    32    1
    23    32    33    1
    24    33    34   ar
    25    34    35    1
    26    34    36   ar
    27    36    37   ar
    28    37    38   ar
    29    38    39   ar
    30    39    40    1
    31    40    41    1
    32    40    42    1
    33    40    43    1
    34     6     7   ar
    35     7     8    2
    36    17    18    1
    37    18    19   ar
    38    19    20   ar
    39    20    21   ar
    40    21    22   ar
    41    22    23   ar
    42     7     1   ar
    43    23    18   ar
    44    14     9   ar
    45    39    33   ar
    46    24    25    1
@<TRIPOS>MOLECULE
*****
 43 46 0 0 0
SMALL
GASTEIGER

@<TRIPOS>ATOM
      1 N          63.8262   90.7883   12.4531 N.ar    1  UNL1       -0.2470
      2 C          62.9783   90.1451   11.3961 C.ar    1  UNL1        0.2657
      3 O          62.4000   90.9766   10.2897 O.2     1  UNL1       -0.2668
      4 C          62.7086   88.6704   11.4456 C.ar    1  UNL1        0.0744
      5 C          63.2868   87.8389   12.5521 C.ar    1  UNL1        0.0848
      6 N          64.1348   88.4821   13.6091 N.ar    1  UNL1       -0.2755
      7 C          64.4044   89.9568   13.5596 C.ar    1  UNL1        0.3341
      8 O          65.2524   90.6001   14.6166 O.2     1  UNL1       -0.2462
      9 C          61.8607   88.0271   10.3886 C.ar    1  UNL1        0.0166
     10 C          62.4818   87.0878    9.3977 C.ar    1  UNL1        0.0010
     11 C          61.6339   86.4445    8.3407 C.ar    1  UNL1        0.0001
     12 C          60.1649   86.7405    8.2746 C.ar    1  UNL1        0.0009
     13 C          59.5437   87.6798    9.2655 C.ar    1  UNL1        0.0114
     14 C          60.3917   88.3231   10.3225 C.ar    1  UNL1        0.0578
     15 CL         59.7706   89.2624   11.3134 Cl      1  UNL1       -0.0822
     16 C          64.0959   92.2631   12.4037 C.3     1  UNL1        0.1337
     17 C          65.4619   92.7639   12.0388 C.3     1  UNL1        0.1000
     18 C          66.5604   92.7581   13.0602 C.ar    1  UNL1       -0.0061
     19 C          67.7233   91.8233   12.9057 C.ar    1  UNL1       -0.0029
     20 C          68.8218   91.8175   13.9271 C.ar    1  UNL1       -0.0003
     21 C          68.7574   92.7466   15.1030 C.ar    1  UNL1       -0.0000
     22 C          67.5946   93.6814   15.2575 C.ar    1  UNL1       -0.0003
     23 C          66.4961   93.6871   14.2361 C.ar    1  UNL1       -0.0029
     24 N          65.7294   93.2705   10.6525 N.3     1  UNL1       -0.2935
     25 H          64.8639   93.1559   10.1250 H       1  UNL1        0.1236
     26 C          66.8231   92.6583    9.8284 C.3     1  UNL1        0.0692
     27 C          67.7494   93.5364    9.0404 C.3     1  UNL1        0.0230
     28 C          67.8792   94.9904    9.3855 C.3     1  UNL1        0.0431
     29 O          65.5305   96.0600    9.6850 O.co2   1  UNL1       -0.5492
     30 C          66.8285   95.9637    8.9395 C.2     1  UNL1        0.0504
     31 O          67.0759   96.8407    7.7481 O.co2   1  UNL1       -0.5492
     32 C          64.7130   87.6506   14.7156 C.3     1  UNL1        0.1394
     33 C          63.8080   86.8449   15.5998 C.ar    1  UNL1        0.0319
     34 C          63.1830   87.4768   16.8082 C.ar    1  UNL1        0.1379
     35 F          63.4629   88.9143   17.1323 F       1  UNL1       -0.2044
     36 C          62.2781   86.6711   17.6924 C.ar    1  UNL1        0.0294
     37 C          61.9981   85.2335   17.3682 C.ar    1  UNL1        0.0022
     38 C          62.6231   84.6016   16.1599 C.ar    1  UNL1        0.0037
     39 C          63.5281   85.4074   15.2756 C.ar    1  UNL1        0.0714
     40 C          64.1531   84.7755   14.0673 C.3     1  UNL1        0.4184
     41 F          64.7781   84.1436   12.8590 F       1  UNL1       -0.1659
     42 F          62.8527   84.8991   13.3301 F       1  UNL1       -0.1659
     43 F          65.4535   84.6519   14.8046 F       1  UNL1       -0.1659
@<TRIPOS>UNITY_ATOM_ATTR
29 1
charge -1
@<TRIPOS>BOND
     1    29    30   ar
     2    30    31   ar
     3    30    28    1
     4    28    27    1
     5    27    26    1
     6    26    24    1
     7    24    17    1
     8    17    16    1
     9    16     1    1
    10     1     2   ar
    11     2     3    2
    12     2     4   ar
    13     4     9    1
    14     9    10   ar
    15    10    11   ar
    16    11    12   ar
    17    12    13   ar
    18    13    14   ar
    19    14    15    1
    20     4     5   ar
    21     5     6   ar
    22     6    32    1
    23    32    33    1
    24    33    34   ar
    25    34    35    1
    26    34    36   ar
    27    36    37   ar
    28    37    38   ar
    29    38    39   ar
    30    39    40    1
    31    40    41    1
    32    40    42    1
    33    40    43    1
    34     6     7   ar
    35     7     8    2
    36    17    18    1
    37    18    19   ar
    38    19    20   ar
    39    20    21   ar
    40    21    22   ar
    41    22    23   ar
    42     7     1   ar
    43    23    18   ar
    44    14     9   ar
    45    39    33   ar
    46    24    25    1
@<TRIPOS>MOLECULE
*****
 43 46 0 0 0
SMALL
GASTEIGER

@<TRIPOS>ATOM
      1 N          62.9791   88.9334   12.5636 N.ar    1  UNL1       -0.2470
      2 C          62.1576   88.6768   11.3351 C.ar    1  UNL1        0.2657
      3 O          61.5337   89.8239   10.5970 O.2     1  UNL1       -0.2668
      4 C          61.9601   87.2731   10.8447 C.ar    1  UNL1        0.0744
      5 C          62.5840   86.1260   11.5829 C.ar    1  UNL1        0.0848
      6 N          63.4055   86.3826   12.8114 N.ar    1  UNL1       -0.2755
      7 C          63.6030   87.7863   13.3018 C.ar    1  UNL1        0.3341
      8 O          64.4246   88.0430   14.5303 O.2     1  UNL1       -0.2462
      9 C          61.1386   87.0164    9.6162 C.ar    1  UNL1        0.0166
     10 C          59.7595   87.5951    9.5017 C.ar    1  UNL1        0.0010
     11 C          58.9380   87.3385    8.2733 C.ar    1  UNL1        0.0001
     12 C          59.4956   86.5031    7.1591 C.ar    1  UNL1        0.0009
     13 C          60.8747   85.9244    7.2735 C.ar    1  UNL1        0.0114
     14 C          61.6962   86.1811    8.5021 C.ar    1  UNL1        0.0578
     15 CL         63.0753   85.6024    8.6165 Cl      1  UNL1       -0.0822
     16 C          63.1767   90.3372   13.0541 C.3     1  UNL1        0.1337
     17 C          64.5626   90.8648   13.2795 C.3     1  UNL1        0.1000
     18 C          65.2440   91.6648   12.2091 C.ar    1  UNL1       -0.0061
     19 C          66.7362   91.8161   12.2211 C.ar    1  UNL1       -0.0029
     20 C          67.4175   92.6161   11.1507 C.ar    1  UNL1       -0.0003
     21 C          66.6066   93.2647   10.0683 C.ar    1  UNL1       -0.0000
     22 C          65.1143   93.1133   10.0562 C.ar    1  UNL1       -0.0003
     23 C          64.4330   92.3134   11.1267 C.ar    1  UNL1       -0.0029
     24 N          65.2672   90.5924   14.5755 N.3     1  UNL1       -0.2935
     25 H          65.0470   89.6306   14.8339 H       1  UNL1        0.1236
     26 C          64.9790   91.4408   15.7785 C.3     1  UNL1        0.0692
     27 C          65.9090   92.5581   16.1485 C.3     1  UNL1        0.0230
     28 C          66.7365   93.2265   15.0909 C.3     1  UNL1        0.0431
     29 O          68.6835   94.4839   16.2647 O.co2   1  UNL1       -0.5492
     30 C          68.2064   93.4324   15.3074 C.2     1  UNL1        0.0504
     31 O          69.1993   92.5867   14.5665 O.co2   1  UNL1       -0.5492
     32 C          64.0294   85.2355   13.5495 C.3     1  UNL1        0.1394
     33 C          63.2857   83.9404   13.6897 C.ar    1  UNL1        0.0319
     34 C          62.4618   83.6775   14.9153 C.ar    1  UNL1        0.1379
     35 F          62.3816   84.7097   16.0007 F       1  UNL1       -0.2044
     36 C          61.7181   82.3824   15.0554 C.ar    1  UNL1        0.0294
     37 C          61.7983   81.3502   13.9700 C.ar    1  UNL1        0.0022
     38 C          62.6222   81.6131   12.7445 C.ar    1  UNL1        0.0037
     39 C          63.3659   82.9082   12.6043 C.ar    1  UNL1        0.0714
     40 C          64.1898   83.1711   11.3787 C.3     1  UNL1        0.4184
     41 F          65.0137   83.4339   10.1531 F       1  UNL1       -0.1659
     42 F          62.9395   83.2394   10.5528 F       1  UNL1       -0.1659
     43 F          65.4401   83.1028   12.2045 F       1  UNL1       -0.1659
@<TRIPOS>UNITY_ATOM_ATTR
29 1
charge -1
@<TRIPOS>BOND
     1    29    30   ar
     2    30    31   ar
     3    30    28    1
     4    28    27    1
     5    27    26    1
     6    26    24    1
     7    24    17    1
     8    17    16    1
     9    16     1    1
    10     1     2   ar
    11     2     3    2
    12     2     4   ar
    13     4     9    1
    14     9    10   ar
    15    10    11   ar
    16    11    12   ar
    17    12    13   ar
    18    13    14   ar
    19    14    15    1
    20     4     5   ar
    21     5     6   ar
    22     6    32    1
    23    32    33    1
    24    33    34   ar
    25    34    35    1
    26    34    36   ar
    27    36    37   ar
    28    37    38   ar
    29    38    39   ar
    30    39    40    1
    31    40    41    1
    32    40    42    1
    33    40    43    1
    34     6     7   ar
    35     7     8    2
    36    17    18    1
    37    18    19   ar
    38    19    20   ar
    39    20    21   ar
    40    21    22   ar
    41    22    23   ar
    42     7     1   ar
    43    23    18   ar
    44    14     9   ar
    45    39    33   ar
    46    24    25    1
@<TRIPOS>MOLECULE
*****
 43 46 0 0 0
SMALL
GASTEIGER

@<TRIPOS>ATOM
      1 N          63.5071   89.6878   11.5224 N.ar    1  UNL1       -0.2470
      2 C          63.3896   88.5905   12.5383 C.ar    1  UNL1        0.2657
      3 O          62.7716   87.2780   12.1566 O.2     1  UNL1       -0.2668
      4 C          63.8901   88.8056   13.9358 C.ar    1  UNL1        0.0744
      5 C          64.5081   90.1180   14.3175 C.ar    1  UNL1        0.0848
      6 N          64.6256   91.2153   13.3016 N.ar    1  UNL1       -0.2755
      7 C          64.1250   91.0002   11.9040 C.ar    1  UNL1        0.3341
      8 O          64.2425   92.0975   10.8880 O.2     1  UNL1       -0.2462
      9 C          63.7727   87.7082   14.9518 C.ar    1  UNL1        0.0166
     10 C          64.2407   86.3230   14.6171 C.ar    1  UNL1        0.0010
     11 C          64.1233   85.2257   15.6329 C.ar    1  UNL1        0.0001
     12 C          63.5378   85.5136   16.9837 C.ar    1  UNL1        0.0009
     13 C          63.0697   86.8988   17.3184 C.ar    1  UNL1        0.0114
     14 C          63.1872   87.9962   16.3024 C.ar    1  UNL1        0.0578
     15 CL         62.7192   89.3814   16.6372 Cl      1  UNL1       -0.0822
     16 C          63.0065   89.4727   10.1248 C.3     1  UNL1        0.1337
     17 C          61.5556   89.6820    9.8072 C.3     1  UNL1        0.1000
     18 C          60.7899   88.6259    9.0665 C.ar    1  UNL1       -0.0061
     19 C          59.6611   89.0156    8.1589 C.ar    1  UNL1       -0.0029
     20 C          58.8955   87.9595    7.4183 C.ar    1  UNL1       -0.0003
     21 C          59.2588   86.5138    7.5853 C.ar    1  UNL1       -0.0000
     22 C          60.3877   86.1241    8.4929 C.ar    1  UNL1       -0.0003
     23 C          61.1532   87.1802    9.2335 C.ar    1  UNL1       -0.0029
     24 N          60.8702   90.9474   10.2303 N.3     1  UNL1       -0.2935
     25 H          61.6040   91.6106   10.4795 H       1  UNL1        0.1236
     26 C          59.8979   90.9280   11.3725 C.3     1  UNL1        0.0692
     27 C          59.8137   89.7255   12.2652 C.3     1  UNL1        0.0230
     28 C          58.6080   88.8348   12.2118 C.3     1  UNL1        0.0431
     29 O          56.3923   88.1879   13.4044 O.co2   1  UNL1       -0.5492
     30 C          57.8544   88.5165   13.4691 C.2     1  UNL1        0.0504
     31 O          58.5629   88.5267   14.7912 O.co2   1  UNL1       -0.5492
     32 C          65.2435   92.5277   13.6832 C.3     1  UNL1        0.1394
     33 C          66.5557   92.5559   14.4093 C.ar    1  UNL1        0.0319
     34 C          66.5836   92.6894   15.9031 C.ar    1  UNL1        0.1379
     35 F          65.2993   92.7947   16.6708 F       1  UNL1       -0.2044
     36 C          67.8959   92.7176   16.6292 C.ar    1  UNL1        0.0294
     37 C          69.1802   92.6122   15.8616 C.ar    1  UNL1        0.0022
     38 C          69.1524   92.4787   14.3678 C.ar    1  UNL1        0.0037
     39 C          67.8401   92.4506   13.6416 C.ar    1  UNL1        0.0714
     40 C          67.8123   92.3171   12.1479 C.3     1  UNL1        0.4184
     41 F          67.7844   92.1836   10.6541 F       1  UNL1       -0.1659
     42 F          68.7184   91.1251   12.2375 F       1  UNL1       -0.1659
     43 F          66.9062   93.5091   12.0582 F       1  UNL1       -0.1659
@<TRIPOS>UNITY_ATOM_ATTR
29 1
charge -1
@<TRIPOS>BOND
     1    29    30   ar
     2    30    31   ar
     3    30    28    1
     4    28    27    1
     5    27    26    1
     6    26    24    1
     7    24    17    1
     8    17    16    1
     9    16     1    1
    10     1     2   ar
    11     2     3    2
    12     2     4   ar
    13     4     9    1
    14     9    10   ar
    15    10    11   ar
    16    11    12   ar
    17    12    13   ar
    18    13    14   ar
    19    14    15    1
    20     4     5   ar
    21     5     6   ar
    22     6    32    1
    23    32    33    1
    24    33    34   ar
    25    34    35    1
    26    34    36   ar
    27    36    37   ar
    28    37    38   ar
    29    38    39   ar
    30    39    40    1
    31    40    41    1
    32    40    42    1
    33    40    43    1
    34     6     7   ar
    35     7     8    2
    36    17    18    1
    37    18    19   ar
    38    19    20   ar
    39    20    21   ar
    40    21    22   ar
    41    22    23   ar
    42     7     1   ar
    43    23    18   ar
    44    14     9   ar
    45    39    33   ar
    46    24    25    1
