@<TRIPOS>MOLECULE
*****
 37 40 0 0 0
SMALL
GASTEIGER

@<TRIPOS>ATOM
      1 N          58.8744   90.9353   10.8620 N.pl3   1  UNL1       -0.3275
      2 C          60.0227   90.0497   11.2458 C.ar    1  UNL1        0.2134
      3 N          59.9419   88.5710   11.0070 N.ar    1  UNL1       -0.2169
      4 C          61.0901   87.6855   11.3907 C.ar    1  UNL1        0.0810
      5 C          62.3192   88.2785   12.0133 C.ar    1  UNL1        0.0309
      6 C          62.4001   89.7572   12.2521 C.ar    1  UNL1        0.0867
      7 N          61.2517   90.6427   11.8683 N.ar    1  UNL1       -0.2141
      8 C          63.2852   87.1636   12.2852 C.3     1  UNL1        0.1248
      9 N          62.6530   85.8815   11.8307 N.am    1  UNL1       -0.2543
     10 C          63.2693   84.5165   11.9144 C.2     1  UNL1        0.3047
     11 O          64.6418   84.3476   12.4954 O.2     1  UNL1       -0.2526
     12 N          62.5130   83.3204   11.4171 N.am    1  UNL1       -0.2813
     13 C          61.2964   86.2040   11.2779 C.3     1  UNL1        0.1409
     14 H          58.0677   90.5460   10.4534 H       1  UNL1        0.1452
     15 H          58.9274   91.9057   11.0187 H       1  UNL1        0.1452
     16 H          61.6121   83.4312   11.0358 H       1  UNL1        0.1512
     17 C          63.6292   90.3503   12.8747 C.ar    1  UNL1        0.0621
     18 C          64.4923   91.2883   12.0839 C.ar    1  UNL1        0.0629
     19 CL         64.1263   91.6331   10.6707 Cl      1  UNL1       -0.0821
     20 C          65.7214   91.8815   12.7064 C.ar    1  UNL1        0.0230
     21 C          66.0873   91.5367   14.1196 C.ar    1  UNL1        0.0615
     22 CL         67.3163   92.1299   14.7421 Cl      1  UNL1       -0.0821
     23 C          65.2242   90.5987   14.9103 C.ar    1  UNL1        0.0484
     24 C          63.9951   90.0055   14.2879 C.ar    1  UNL1        0.1417
     25 O          63.1320   89.0675   15.0786 O.3     1  UNL1       -0.4732
     26 C          63.1107   89.1502   16.5761 C.3     1  UNL1        0.2316
     27 C          63.0449   87.8956   17.3956 C.3     1  UNL1        0.1746
     28 N          63.0189   86.5576   16.7181 N.ar    1  UNL1       -0.2455
     29 C          64.1572   85.9232   15.9753 C.ar    1  UNL1        0.0968
     30 C          63.6918   84.5925   15.4625 C.ar    1  UNL1        0.0427
     31 C          62.2658   84.4047   15.8884 C.ar    1  UNL1        0.1217
     32 N          61.8500   85.6192   16.6644 N.ar    1  UNL1       -0.1675
     33 C          63.1293   81.9554   11.5008 C.3     1  UNL1        0.1951
     34 C          62.5585   80.9309   12.4358 C.3     1  UNL1        0.4155
     35 F          61.9876   79.9063   13.3709 F       1  UNL1       -0.1682
     36 F          62.7656   79.8681   11.3978 F       1  UNL1       -0.1682
     37 F          62.3513   81.9937   13.4740 F       1  UNL1       -0.1682
@<TRIPOS>BOND
     1     1     2    1
     2     2     3   ar
     3     3     4   ar
     4     4     5   ar
     5     5     6   ar
     6     6    17    1
     7    17    18   ar
     8    18    19    1
     9    18    20   ar
    10    20    21   ar
    11    21    22    1
    12    21    23   ar
    13    23    24   ar
    14    24    25    1
    15    25    26    1
    16    26    27    1
    17    27    28    1
    18    28    29   ar
    19    29    30   ar
    20    30    31   ar
    21    31    32   ar
    22     6     7   ar
    23     5     8    1
    24     8     9    1
    25     9    10   am
    26    10    11    2
    27    10    12   am
    28    12    33    1
    29    33    34    1
    30    34    35    1
    31    34    36    1
    32    34    37    1
    33     9    13    1
    34     7     2   ar
    35    13     4    1
    36    24    17   ar
    37    32    28   ar
    38     1    14    1
    39     1    15    1
    40    12    16    1
@<TRIPOS>MOLECULE
*****
 37 40 0 0 0
SMALL
GASTEIGER

@<TRIPOS>ATOM
      1 N          66.9145   92.9498   12.9032 N.pl3   1  UNL1       -0.3275
      2 C          65.7513   92.0144   12.7546 C.ar    1  UNL1        0.2134
      3 N          64.9725   91.9839   11.4729 N.ar    1  UNL1       -0.2169
      4 C          63.8093   91.0486   11.3242 C.ar    1  UNL1        0.0810
      5 C          63.4248   90.1438   12.4572 C.ar    1  UNL1        0.0309
      6 C          64.2036   90.1743   13.7388 C.ar    1  UNL1        0.0867
      7 N          65.3669   91.1097   13.8874 N.ar    1  UNL1       -0.2141
      8 C          62.2397   89.3339   12.0219 C.3     1  UNL1        0.1248
      9 N          61.8917   89.7381   10.6200 N.am    1  UNL1       -0.2543
     10 C          60.7705   89.1805    9.7941 C.2     1  UNL1        0.3047
     11 O          59.8770   88.1182   10.3623 O.2     1  UNL1       -0.2526
     12 N          60.5429   89.6853    8.4001 N.am    1  UNL1       -0.2813
     13 C          62.8618   90.7979   10.1888 C.3     1  UNL1        0.1409
     14 H          67.1668   93.5436   12.1596 H       1  UNL1        0.1452
     15 H          67.4257   92.9699   13.7444 H       1  UNL1        0.1452
     16 H          61.1293   90.3826    8.0271 H       1  UNL1        0.1512
     17 C          63.8192   89.2695   14.8718 C.ar    1  UNL1        0.0621
     18 C          63.5001   89.8481   16.2184 C.ar    1  UNL1        0.0629
     19 CL         63.5654   91.3313   16.4320 Cl      1  UNL1       -0.0821
     20 C          63.1157   88.9434   17.3514 C.ar    1  UNL1        0.0230
     21 C          63.0504   87.4601   17.1378 C.ar    1  UNL1        0.0615
     22 CL         62.6660   86.5554   18.2708 Cl      1  UNL1       -0.0821
     23 C          63.3695   86.8816   15.7911 C.ar    1  UNL1        0.0484
     24 C          63.7539   87.7863   14.6581 C.ar    1  UNL1        0.1417
     25 O          64.0730   87.2077   13.3115 O.3     1  UNL1       -0.4732
     26 C          63.4533   85.9093   12.8871 C.3     1  UNL1        0.2316
     27 C          64.0881   84.6099   13.2852 C.3     1  UNL1        0.1746
     28 N          63.2558   83.3652   13.3755 N.ar    1  UNL1       -0.2455
     29 C          63.1471   82.2992   12.3259 C.ar    1  UNL1        0.0968
     30 C          62.2102   81.2431   12.8331 C.ar    1  UNL1        0.0427
     31 C          61.7399   81.6566   14.1961 C.ar    1  UNL1        0.1217
     32 N          62.3862   82.9681   14.5313 N.ar    1  UNL1       -0.1675
     33 C          59.4216   89.1276    7.5743 C.3     1  UNL1        0.1951
     34 C          59.0099   89.8156    6.3066 C.3     1  UNL1        0.4155
     35 F          58.5981   90.5035    5.0388 F       1  UNL1       -0.1682
     36 F          57.5769   89.4700    6.5844 F       1  UNL1       -0.1682
     37 F          60.4429   90.1612    6.0286 F       1  UNL1       -0.1682
@<TRIPOS>BOND
     1     1     2    1
     2     2     3   ar
     3     3     4   ar
     4     4     5   ar
     5     5     6   ar
     6     6    17    1
     7    17    18   ar
     8    18    19    1
     9    18    20   ar
    10    20    21   ar
    11    21    22    1
    12    21    23   ar
    13    23    24   ar
    14    24    25    1
    15    25    26    1
    16    26    27    1
    17    27    28    1
    18    28    29   ar
    19    29    30   ar
    20    30    31   ar
    21    31    32   ar
    22     6     7   ar
    23     5     8    1
    24     8     9    1
    25     9    10   am
    26    10    11    2
    27    10    12   am
    28    12    33    1
    29    33    34    1
    30    34    35    1
    31    34    36    1
    32    34    37    1
    33     9    13    1
    34     7     2   ar
    35    13     4    1
    36    24    17   ar
    37    32    28   ar
    38     1    14    1
    39     1    15    1
    40    12    16    1
@<TRIPOS>MOLECULE
*****
 37 40 0 0 0
SMALL
GASTEIGER

@<TRIPOS>ATOM
      1 N          64.2276   89.3715   13.9696 N.pl3   1  UNL1       -0.3275
      2 C          63.4788   88.7503   12.8278 C.ar    1  UNL1        0.2134
      3 N          62.6765   89.6130   11.8993 N.ar    1  UNL1       -0.2169
      4 C          61.9277   88.9919   10.7576 C.ar    1  UNL1        0.0810
      5 C          61.9813   87.5081   10.5443 C.ar    1  UNL1        0.0309
      6 C          62.7836   86.6454   11.4728 C.ar    1  UNL1        0.0867
      7 N          63.5324   87.2666   12.6146 N.ar    1  UNL1       -0.2141
      8 C          61.1462   87.1822    9.3417 C.3     1  UNL1        0.1248
      9 N          60.5765   88.4645    8.8117 N.am    1  UNL1       -0.2543
     10 C          59.6809   88.6040    7.6165 C.2     1  UNL1        0.3047
     11 O          59.2796   87.3888    6.8341 O.2     1  UNL1       -0.2526
     12 N          59.1868   89.9587    7.2035 N.am    1  UNL1       -0.2813
     13 C          61.0595   89.5830    9.6868 C.3     1  UNL1        0.1409
     14 H          64.1924   90.3454   14.1095 H       1  UNL1        0.1452
     15 H          64.7542   88.8054   14.5790 H       1  UNL1        0.1452
     16 H          59.4502   90.7564    7.7170 H       1  UNL1        0.1512
     17 C          62.8372   85.1616   11.2596 C.ar    1  UNL1        0.0621
     18 C          63.2071   84.6101    9.9146 C.ar    1  UNL1        0.0629
     19 CL         63.5233   85.5424    8.7829 Cl      1  UNL1       -0.0821
     20 C          63.2607   83.1263    9.7013 C.ar    1  UNL1        0.0230
     21 C          62.9445   82.1941   10.8330 C.ar    1  UNL1        0.0615
     22 CL         62.9981   80.7103   10.6198 Cl      1  UNL1       -0.0821
     23 C          62.5747   82.7456   12.1781 C.ar    1  UNL1        0.0484
     24 C          62.5210   84.2293   12.3913 C.ar    1  UNL1        0.1417
     25 O          62.1512   84.7808   13.7364 O.3     1  UNL1       -0.4732
     26 C          62.6607   84.1211   14.9834 C.3     1  UNL1        0.2316
     27 C          63.7075   84.7994   15.8166 C.3     1  UNL1        0.1746
     28 N          63.3743   86.0586   16.5603 N.ar    1  UNL1       -0.2455
     29 C          62.8322   86.1408   17.9566 C.ar    1  UNL1        0.0968
     30 C          62.6476   87.5899   18.2976 C.ar    1  UNL1        0.0427
     31 C          63.0756   88.4032   17.1121 C.ar    1  UNL1        0.1217
     32 N          63.5247   87.4568   16.0384 N.ar    1  UNL1       -0.1675
     33 C          58.2913   90.0981    6.0083 C.3     1  UNL1        0.1951
     34 C          58.4860   91.2392    5.0543 C.3     1  UNL1        0.4155
     35 F          58.6807   92.3803    4.1004 F       1  UNL1       -0.1682
     36 F          57.0062   91.4843    5.0454 F       1  UNL1       -0.1682
     37 F          59.9659   90.9941    5.0631 F       1  UNL1       -0.1682
@<TRIPOS>BOND
     1     1     2    1
     2     2     3   ar
     3     3     4   ar
     4     4     5   ar
     5     5     6   ar
     6     6    17    1
     7    17    18   ar
     8    18    19    1
     9    18    20   ar
    10    20    21   ar
    11    21    22    1
    12    21    23   ar
    13    23    24   ar
    14    24    25    1
    15    25    26    1
    16    26    27    1
    17    27    28    1
    18    28    29   ar
    19    29    30   ar
    20    30    31   ar
    21    31    32   ar
    22     6     7   ar
    23     5     8    1
    24     8     9    1
    25     9    10   am
    26    10    11    2
    27    10    12   am
    28    12    33    1
    29    33    34    1
    30    34    35    1
    31    34    36    1
    32    34    37    1
    33     9    13    1
    34     7     2   ar
    35    13     4    1
    36    24    17   ar
    37    32    28   ar
    38     1    14    1
    39     1    15    1
    40    12    16    1
@<TRIPOS>MOLECULE
*****
 37 40 0 0 0
SMALL
GASTEIGER

@<TRIPOS>ATOM
      1 N          63.1500   89.8603   16.9731 N.pl3   1  UNL1       -0.3275
      2 C          63.4465   90.2042   15.5434 C.ar    1  UNL1        0.2134
      3 N          64.3228   91.3780   15.2206 N.ar    1  UNL1       -0.2169
      4 C          64.6193   91.7220   13.7910 C.ar    1  UNL1        0.0810
      5 C          64.0394   90.8921   12.6841 C.ar    1  UNL1        0.0309
      6 C          63.1630   89.7183   13.0069 C.ar    1  UNL1        0.0867
      7 N          62.8666   89.3744   14.4366 N.ar    1  UNL1       -0.2141
      8 C          64.5041   91.4690   11.3799 C.3     1  UNL1        0.1248
      9 N          65.3713   92.6554   11.6806 N.am    1  UNL1       -0.2543
     10 C          66.0484   93.5317   10.6689 C.2     1  UNL1        0.3047
     11 O          65.8848   93.2512    9.2044 O.2     1  UNL1       -0.2526
     12 N          66.8891   94.6885   11.1215 N.am    1  UNL1       -0.2813
     13 C          65.4424   92.8118   13.1707 C.3     1  UNL1        0.1409
     14 H          63.5307   90.4050   17.6995 H       1  UNL1        0.1452
     15 H          62.5749   89.0899   17.1850 H       1  UNL1        0.1452
     16 H          66.9966   94.8727   12.0826 H       1  UNL1        0.1512
     17 C          62.5831   88.8884   11.9001 C.ar    1  UNL1        0.0621
     18 C          61.7358   89.5336   10.8439 C.ar    1  UNL1        0.0629
     19 CL         61.4684   91.0087   10.8945 Cl      1  UNL1       -0.0821
     20 C          61.1558   88.7038    9.7371 C.ar    1  UNL1        0.0230
     21 C          61.4232   87.2287    9.6866 C.ar    1  UNL1        0.0615
     22 CL         60.8432   86.3989    8.5798 Cl      1  UNL1       -0.0821
     23 C          62.2705   86.5835   10.7429 C.ar    1  UNL1        0.0484
     24 C          62.8505   87.4133   11.8497 C.ar    1  UNL1        0.1417
     25 O          63.6978   86.7680   12.9059 O.3     1  UNL1       -0.4732
     26 C          63.3118   85.4301   13.4633 C.3     1  UNL1        0.2316
     27 C          64.2558   84.2699   13.3504 C.3     1  UNL1        0.1746
     28 N          63.7184   82.8746   13.2300 N.ar    1  UNL1       -0.2455
     29 C          63.2634   82.2112   11.9639 C.ar    1  UNL1        0.0968
     30 C          62.8055   80.8244   12.3060 C.ar    1  UNL1        0.0427
     31 C          62.9775   80.6307   13.7835 C.ar    1  UNL1        0.1217
     32 N          63.5417   81.8978   14.3545 N.ar    1  UNL1       -0.1675
     33 C          67.5662   95.5648   10.1096 C.3     1  UNL1        0.1951
     34 C          66.7639   96.2067    9.0169 C.3     1  UNL1        0.4155
     35 F          65.9615   96.8486    7.9241 F       1  UNL1       -0.1682
     36 F          65.8816   96.8523   10.0439 F       1  UNL1       -0.1682
     37 F          67.6461   95.5611    7.9897 F       1  UNL1       -0.1682
@<TRIPOS>BOND
     1     1     2    1
     2     2     3   ar
     3     3     4   ar
     4     4     5   ar
     5     5     6   ar
     6     6    17    1
     7    17    18   ar
     8    18    19    1
     9    18    20   ar
    10    20    21   ar
    11    21    22    1
    12    21    23   ar
    13    23    24   ar
    14    24    25    1
    15    25    26    1
    16    26    27    1
    17    27    28    1
    18    28    29   ar
    19    29    30   ar
    20    30    31   ar
    21    31    32   ar
    22     6     7   ar
    23     5     8    1
    24     8     9    1
    25     9    10   am
    26    10    11    2
    27    10    12   am
    28    12    33    1
    29    33    34    1
    30    34    35    1
    31    34    36    1
    32    34    37    1
    33     9    13    1
    34     7     2   ar
    35    13     4    1
    36    24    17   ar
    37    32    28   ar
    38     1    14    1
    39     1    15    1
    40    12    16    1
@<TRIPOS>MOLECULE
*****
 37 40 0 0 0
SMALL
GASTEIGER

@<TRIPOS>ATOM
      1 N          58.9989   88.5914    8.0378 N.pl3   1  UNL1       -0.3275
      2 C          60.0577   88.3640    9.0758 C.ar    1  UNL1        0.2134
      3 N          60.4406   89.4720   10.0117 N.ar    1  UNL1       -0.2169
      4 C          61.4993   89.2447   11.0497 C.ar    1  UNL1        0.0810
      5 C          62.1752   87.9095   11.1518 C.ar    1  UNL1        0.0309
      6 C          61.7924   86.8016   10.2158 C.ar    1  UNL1        0.0867
      7 N          60.7336   87.0289    9.1778 N.ar    1  UNL1       -0.2141
      8 C          63.1756   87.9804   12.2671 C.3     1  UNL1        0.1248
      9 N          63.1180   89.3594   12.8544 N.am    1  UNL1       -0.2543
     10 C          63.9504   89.8679   13.9940 C.2     1  UNL1        0.3047
     11 O          64.9518   88.9658   14.6522 O.2     1  UNL1       -0.2526
     12 N          63.7812   91.2784   14.4755 N.am    1  UNL1       -0.2813
     13 C          62.0820   90.1408   12.1020 C.3     1  UNL1        0.1409
     14 H          58.5553   89.4678    7.9709 H       1  UNL1        0.1452
     15 H          58.7476   87.8643    7.4235 H       1  UNL1        0.1452
     16 H          63.1239   91.8705   14.0435 H       1  UNL1        0.1512
     17 C          62.4682   85.4663   10.3178 C.ar    1  UNL1        0.0621
     18 C          63.1215   84.8622    9.1102 C.ar    1  UNL1        0.0629
     19 CL         63.0989   85.5934    7.8007 Cl      1  UNL1       -0.0821
     20 C          63.7974   83.5270    9.2121 C.ar    1  UNL1        0.0230
     21 C          63.8199   82.7959   10.5216 C.ar    1  UNL1        0.0615
     22 CL         64.4958   81.4607   10.6235 Cl      1  UNL1       -0.0821
     23 C          63.1667   83.4000   11.7293 C.ar    1  UNL1        0.0484
     24 C          62.4908   84.7352   11.6274 C.ar    1  UNL1        0.1417
     25 O          61.8376   85.3393   12.8350 O.3     1  UNL1       -0.4732
     26 C          62.4122   85.0961   14.1990 C.3     1  UNL1        0.2316
     27 C          61.9544   83.9178   15.0066 C.3     1  UNL1        0.1746
     28 N          62.2888   82.5260   14.5585 N.ar    1  UNL1       -0.2455
     29 C          61.3102   81.4948   14.0798 C.ar    1  UNL1        0.0968
     30 C          62.0771   80.2524   13.7359 C.ar    1  UNL1        0.0427
     31 C          63.5296   80.5157   14.0020 C.ar    1  UNL1        0.1217
     32 N          63.6604   81.9209   14.5104 N.ar    1  UNL1       -0.1675
     33 C          64.6135   91.7867   15.6152 C.3     1  UNL1        0.1951
     34 C          65.8577   92.5784   15.3404 C.3     1  UNL1        0.4155
     35 F          67.1018   93.3700   15.0657 F       1  UNL1       -0.1682
     36 F          65.6181   92.4431   13.8659 F       1  UNL1       -0.1682
     37 F          66.0973   92.7136   16.8150 F       1  UNL1       -0.1682
@<TRIPOS>BOND
     1     1     2    1
     2     2     3   ar
     3     3     4   ar
     4     4     5   ar
     5     5     6   ar
     6     6    17    1
     7    17    18   ar
     8    18    19    1
     9    18    20   ar
    10    20    21   ar
    11    21    22    1
    12    21    23   ar
    13    23    24   ar
    14    24    25    1
    15    25    26    1
    16    26    27    1
    17    27    28    1
    18    28    29   ar
    19    29    30   ar
    20    30    31   ar
    21    31    32   ar
    22     6     7   ar
    23     5     8    1
    24     8     9    1
    25     9    10   am
    26    10    11    2
    27    10    12   am
    28    12    33    1
    29    33    34    1
    30    34    35    1
    31    34    36    1
    32    34    37    1
    33     9    13    1
    34     7     2   ar
    35    13     4    1
    36    24    17   ar
    37    32    28   ar
    38     1    14    1
    39     1    15    1
    40    12    16    1
@<TRIPOS>MOLECULE
*****
 37 40 0 0 0
SMALL
GASTEIGER

@<TRIPOS>ATOM
      1 N          63.7610   89.7666   14.0458 N.pl3   1  UNL1       -0.3275
      2 C          63.1154   89.1545   12.8381 C.ar    1  UNL1        0.2134
      3 N          62.3013   90.0065   11.9100 N.ar    1  UNL1       -0.2169
      4 C          61.6557   89.3945   10.7023 C.ar    1  UNL1        0.0810
      5 C          61.8242   87.9304   10.4226 C.ar    1  UNL1        0.0309
      6 C          62.6383   87.0784   11.3507 C.ar    1  UNL1        0.0867
      7 N          63.2839   87.6905   12.5584 N.ar    1  UNL1       -0.2141
      8 C          61.0748   87.6097    9.1635 C.3     1  UNL1        0.1248
      9 N          60.4431   88.8756    8.6649 N.am    1  UNL1       -0.2543
     10 C          59.6004   89.0142    7.4318 C.2     1  UNL1        0.3047
     11 O          59.3249   87.8156    6.5731 O.2     1  UNL1       -0.2526
     12 N          59.0331   90.3513    7.0574 N.am    1  UNL1       -0.2813
     13 C          60.8022   89.9786    9.6159 C.3     1  UNL1        0.1409
     14 H          63.6504   90.7275   14.2293 H       1  UNL1        0.1452
     15 H          64.2954   89.2075   14.6550 H       1  UNL1        0.1452
     16 H          59.2139   91.1380    7.6210 H       1  UNL1        0.1512
     17 C          62.8068   85.6143   11.0711 C.ar    1  UNL1        0.0621
     18 C          63.1966   85.1531    9.6980 C.ar    1  UNL1        0.0629
     19 CL         63.4177   86.1558    8.6046 Cl      1  UNL1       -0.0821
     20 C          63.3651   83.6890    9.4184 C.ar    1  UNL1        0.0230
     21 C          63.1439   82.6863   10.5118 C.ar    1  UNL1        0.0615
     22 CL         63.3125   81.2223   10.2322 Cl      1  UNL1       -0.0821
     23 C          62.7542   83.1476   11.8849 C.ar    1  UNL1        0.0484
     24 C          62.5857   84.6117   12.1646 C.ar    1  UNL1        0.1417
     25 O          62.1959   85.0729   13.5376 O.3     1  UNL1       -0.4732
     26 C          63.0004   84.6449   14.7291 C.3     1  UNL1        0.2316
     27 C          62.6259   83.4012   15.4793 C.3     1  UNL1        0.1746
     28 N          62.5274   82.0904   14.7569 N.ar    1  UNL1       -0.2455
     29 C          61.2637   81.4435   14.2724 C.ar    1  UNL1        0.0968
     30 C          61.6306   80.1496   13.6081 C.ar    1  UNL1        0.0427
     31 C          63.1210   79.9969   13.6820 C.ar    1  UNL1        0.1217
     32 N          63.6752   81.1964   14.3919 N.ar    1  UNL1       -0.1675
     33 C          58.1903   90.4898    5.8243 C.3     1  UNL1        0.1951
     34 C          58.5627   91.4895    4.7698 C.3     1  UNL1        0.4155
     35 F          58.9350   92.4893    3.7154 F       1  UNL1       -0.1682
     36 F          60.0148   91.1946    5.0030 F       1  UNL1       -0.1682
     37 F          57.1105   91.7845    4.5366 F       1  UNL1       -0.1682
@<TRIPOS>BOND
     1     1     2    1
     2     2     3   ar
     3     3     4   ar
     4     4     5   ar
     5     5     6   ar
     6     6    17    1
     7    17    18   ar
     8    18    19    1
     9    18    20   ar
    10    20    21   ar
    11    21    22    1
    12    21    23   ar
    13    23    24   ar
    14    24    25    1
    15    25    26    1
    16    26    27    1
    17    27    28    1
    18    28    29   ar
    19    29    30   ar
    20    30    31   ar
    21    31    32   ar
    22     6     7   ar
    23     5     8    1
    24     8     9    1
    25     9    10   am
    26    10    11    2
    27    10    12   am
    28    12    33    1
    29    33    34    1
    30    34    35    1
    31    34    36    1
    32    34    37    1
    33     9    13    1
    34     7     2   ar
    35    13     4    1
    36    24    17   ar
    37    32    28   ar
    38     1    14    1
    39     1    15    1
    40    12    16    1
@<TRIPOS>MOLECULE
*****
 37 40 0 0 0
SMALL
GASTEIGER

@<TRIPOS>ATOM
      1 N          62.9785   87.9264   18.2978 N.pl3   1  UNL1       -0.3275
      2 C          63.1465   87.6231   16.8384 C.ar    1  UNL1        0.2134
      3 N          63.0506   86.2078   16.3508 N.ar    1  UNL1       -0.2169
      4 C          63.2186   85.9044   14.8914 C.ar    1  UNL1        0.0810
      5 C          63.4824   87.0162   13.9197 C.ar    1  UNL1        0.0309
      6 C          63.5782   88.4315   14.4074 C.ar    1  UNL1        0.0867
      7 N          63.4103   88.7349   15.8668 N.ar    1  UNL1       -0.2141
      8 C          63.6035   86.4161   12.5504 C.3     1  UNL1        0.1248
      9 N          63.4146   84.9334   12.6758 N.am    1  UNL1       -0.2543
     10 C          63.4563   83.9410   11.5517 C.2     1  UNL1        0.3047
     11 O          63.7055   84.4078   10.1481 O.2     1  UNL1       -0.2526
     12 N          63.2486   82.4820   11.8311 N.am    1  UNL1       -0.2813
     13 C          63.1767   84.6171   14.1226 C.3     1  UNL1        0.1409
     14 H          62.8053   87.1967   18.9356 H       1  UNL1        0.1452
     15 H          63.0414   88.8553   18.6180 H       1  UNL1        0.1452
     16 H          63.0850   82.1757   12.7523 H       1  UNL1        0.1512
     17 C          63.8420   89.5434   13.4357 C.ar    1  UNL1        0.0621
     18 C          64.9977   90.4739   13.6565 C.ar    1  UNL1        0.0629
     19 CL         65.8894   90.2924   14.8489 Cl      1  UNL1       -0.0821
     20 C          65.2616   91.5858   12.6849 C.ar    1  UNL1        0.0230
     21 C          64.3698   91.7672   11.4926 C.ar    1  UNL1        0.0615
     22 CL         64.6336   92.8791   10.5210 Cl      1  UNL1       -0.0821
     23 C          63.2141   90.8368   11.2718 C.ar    1  UNL1        0.0484
     24 C          62.9502   89.7248   12.2434 C.ar    1  UNL1        0.1417
     25 O          61.7946   88.7944   12.0226 O.3     1  UNL1       -0.4732
     26 C          60.4999   89.3223   11.4795 C.3     1  UNL1        0.2316
     27 C          60.2626   89.3479    9.9986 C.3     1  UNL1        0.1746
     28 N          60.3396   88.0777    9.2046 N.ar    1  UNL1       -0.2455
     29 C          61.4828   87.1066    9.2033 C.ar    1  UNL1        0.0968
     30 C          61.1366   85.9842    8.2702 C.ar    1  UNL1        0.0427
     31 C          59.7794   86.2618    7.6949 C.ar    1  UNL1        0.1217
     32 N          59.2868   87.5556    8.2723 N.ar    1  UNL1       -0.1675
     33 C          63.2903   81.4898   10.7069 C.3     1  UNL1        0.1951
     34 C          62.9434   80.0528   10.9617 C.3     1  UNL1        0.4155
     35 F          62.5965   78.6159   11.2165 F       1  UNL1       -0.1682
     36 F          62.8878   80.3276   12.4353 F       1  UNL1       -0.1682
     37 F          62.9990   79.7781    9.4881 F       1  UNL1       -0.1682
@<TRIPOS>BOND
     1     1     2    1
     2     2     3   ar
     3     3     4   ar
     4     4     5   ar
     5     5     6   ar
     6     6    17    1
     7    17    18   ar
     8    18    19    1
     9    18    20   ar
    10    20    21   ar
    11    21    22    1
    12    21    23   ar
    13    23    24   ar
    14    24    25    1
    15    25    26    1
    16    26    27    1
    17    27    28    1
    18    28    29   ar
    19    29    30   ar
    20    30    31   ar
    21    31    32   ar
    22     6     7   ar
    23     5     8    1
    24     8     9    1
    25     9    10   am
    26    10    11    2
    27    10    12   am
    28    12    33    1
    29    33    34    1
    30    34    35    1
    31    34    36    1
    32    34    37    1
    33     9    13    1
    34     7     2   ar
    35    13     4    1
    36    24    17   ar
    37    32    28   ar
    38     1    14    1
    39     1    15    1
    40    12    16    1
@<TRIPOS>MOLECULE
*****
 37 40 0 0 0
SMALL
GASTEIGER

@<TRIPOS>ATOM
      1 N          63.9263   93.4651   17.7983 N.pl3   1  UNL1       -0.3275
      2 C          64.1147   92.3479   16.8152 C.ar    1  UNL1        0.2134
      3 N          63.5613   90.9858   17.1127 N.ar    1  UNL1       -0.2169
      4 C          63.7497   89.8686   16.1297 C.ar    1  UNL1        0.0810
      5 C          64.4915   90.1135   14.8491 C.ar    1  UNL1        0.0309
      6 C          65.0448   91.4756   14.5516 C.ar    1  UNL1        0.0867
      7 N          64.8564   92.5928   15.5347 N.ar    1  UNL1       -0.2141
      8 C          64.5203   88.8279   14.0769 C.3     1  UNL1        0.1248
      9 N          63.7963   87.7884   14.8803 N.am    1  UNL1       -0.2543
     10 C          63.5856   86.3570   14.4845 C.2     1  UNL1        0.3047
     11 O          64.1226   85.8534   13.1776 O.2     1  UNL1       -0.2526
     12 N          62.8379   85.4292   15.3955 N.am    1  UNL1       -0.2813
     13 C          63.3201   88.4316   16.1489 C.3     1  UNL1        0.1409
     14 H          63.4395   93.3043   18.6388 H       1  UNL1        0.1452
     15 H          64.2895   94.3591   17.6031 H       1  UNL1        0.1452
     16 H          62.4854   85.7597   16.2533 H       1  UNL1        0.1512
     17 C          65.7866   91.7206   13.2710 C.ar    1  UNL1        0.0621
     18 C          67.2829   91.8250   13.2793 C.ar    1  UNL1        0.0629
     19 CL         68.0374   91.6844   14.5680 Cl      1  UNL1       -0.0821
     20 C          68.0248   92.0699   11.9988 C.ar    1  UNL1        0.0230
     21 C          67.2702   92.2105   10.7101 C.ar    1  UNL1        0.0615
     22 CL         68.0120   92.4555    9.4296 Cl      1  UNL1       -0.0821
     23 C          65.7739   92.1061   10.7018 C.ar    1  UNL1        0.0484
     24 C          65.0320   91.8611   11.9823 C.ar    1  UNL1        0.1417
     25 O          63.5357   91.7567   11.9740 O.3     1  UNL1       -0.4732
     26 C          62.8554   90.8061   11.0341 C.3     1  UNL1        0.2316
     27 C          61.6333   90.0583   11.4781 C.3     1  UNL1        0.1746
     28 N          61.3284   88.7085   10.8993 N.ar    1  UNL1       -0.2455
     29 C          60.5627   88.4428    9.6371 C.ar    1  UNL1        0.0968
     30 C          60.4968   86.9574    9.4388 C.ar    1  UNL1        0.0427
     31 C          61.2218   86.3051   10.5785 C.ar    1  UNL1        0.1217
     32 N          61.7358   87.3873   11.4811 N.ar    1  UNL1       -0.1675
     33 C          62.6272   83.9978   14.9997 C.3     1  UNL1        0.1951
     34 C          63.6169   83.3141   14.1036 C.3     1  UNL1        0.4155
     35 F          64.6066   82.6303   13.2075 F       1  UNL1       -0.1682
     36 F          62.5886   83.2548   13.0131 F       1  UNL1       -0.1682
     37 F          64.6452   83.3733   15.1940 F       1  UNL1       -0.1682
@<TRIPOS>BOND
     1     1     2    1
     2     2     3   ar
     3     3     4   ar
     4     4     5   ar
     5     5     6   ar
     6     6    17    1
     7    17    18   ar
     8    18    19    1
     9    18    20   ar
    10    20    21   ar
    11    21    22    1
    12    21    23   ar
    13    23    24   ar
    14    24    25    1
    15    25    26    1
    16    26    27    1
    17    27    28    1
    18    28    29   ar
    19    29    30   ar
    20    30    31   ar
    21    31    32   ar
    22     6     7   ar
    23     5     8    1
    24     8     9    1
    25     9    10   am
    26    10    11    2
    27    10    12   am
    28    12    33    1
    29    33    34    1
    30    34    35    1
    31    34    36    1
    32    34    37    1
    33     9    13    1
    34     7     2   ar
    35    13     4    1
    36    24    17   ar
    37    32    28   ar
    38     1    14    1
    39     1    15    1
    40    12    16    1
@<TRIPOS>MOLECULE
*****
 37 40 0 0 0
SMALL
GASTEIGER

@<TRIPOS>ATOM
      1 N          57.9611   88.4938   13.4101 N.pl3   1  UNL1       -0.3275
      2 C          59.2181   88.7410   12.6297 C.ar    1  UNL1        0.2134
      3 N          60.0921   89.9124   12.9670 N.ar    1  UNL1       -0.2169
      4 C          61.3491   90.1596   12.1867 C.ar    1  UNL1        0.0810
      5 C          61.7321   89.2353   11.0691 C.ar    1  UNL1        0.0309
      6 C          60.8581   88.0639   10.7318 C.ar    1  UNL1        0.0867
      7 N          59.6011   87.8167   11.5122 N.ar    1  UNL1       -0.2141
      8 C          63.0205   89.7287   10.4804 C.3     1  UNL1        0.1248
      9 N          63.4338   90.9579   11.2342 N.am    1  UNL1       -0.2543
     10 C          64.6641   91.7769   10.9784 C.2     1  UNL1        0.3047
     11 O          65.6110   91.3860    9.8827 O.2     1  UNL1       -0.2526
     12 N          64.9476   92.9869   11.8184 N.am    1  UNL1       -0.2813
     13 C          62.4008   91.2242   12.2887 C.3     1  UNL1        0.1409
     14 H          57.7098   89.1005   14.1436 H       1  UNL1        0.1452
     15 H          57.3874   87.7249   13.1888 H       1  UNL1        0.1452
     16 H          64.3262   93.2435   12.5376 H       1  UNL1        0.1512
     17 C          61.2410   87.1395    9.6142 C.ar    1  UNL1        0.0621
     18 C          60.5247   87.2166    8.2985 C.ar    1  UNL1        0.0629
     19 CL         59.4257   88.2179    8.1005 Cl      1  UNL1       -0.0821
     20 C          60.9076   86.2923    7.1809 C.ar    1  UNL1        0.0230
     21 C          62.0067   85.2910    7.3790 C.ar    1  UNL1        0.0615
     22 CL         62.3895   84.3667    6.2613 Cl      1  UNL1       -0.0821
     23 C          62.7229   85.2139    8.6947 C.ar    1  UNL1        0.0484
     24 C          62.3401   86.1382    9.8123 C.ar    1  UNL1        0.1417
     25 O          63.0563   86.0611   11.1280 O.3     1  UNL1       -0.4732
     26 C          62.6789   85.0076   12.1268 C.3     1  UNL1        0.2316
     27 C          63.5244   83.7774   12.2750 C.3     1  UNL1        0.1746
     28 N          62.9272   82.5196   12.8328 N.ar    1  UNL1       -0.2455
     29 C          62.0784   82.4179   14.0654 C.ar    1  UNL1        0.0968
     30 C          61.7005   80.9780   14.2504 C.ar    1  UNL1        0.0427
     31 C          62.3159   80.1900   13.1322 C.ar    1  UNL1        0.1217
     32 N          63.0740   81.1428   12.2561 N.ar    1  UNL1       -0.1675
     33 C          66.1780   93.8060   11.5625 C.3     1  UNL1        0.1951
     34 C          66.0674   95.1255   10.8578 C.3     1  UNL1        0.4155
     35 F          65.9567   96.4450   10.1531 F       1  UNL1       -0.1682
     36 F          66.0059   95.8275   12.1820 F       1  UNL1       -0.1682
     37 F          66.1289   94.4235    9.5336 F       1  UNL1       -0.1682
@<TRIPOS>BOND
     1     1     2    1
     2     2     3   ar
     3     3     4   ar
     4     4     5   ar
     5     5     6   ar
     6     6    17    1
     7    17    18   ar
     8    18    19    1
     9    18    20   ar
    10    20    21   ar
    11    21    22    1
    12    21    23   ar
    13    23    24   ar
    14    24    25    1
    15    25    26    1
    16    26    27    1
    17    27    28    1
    18    28    29   ar
    19    29    30   ar
    20    30    31   ar
    21    31    32   ar
    22     6     7   ar
    23     5     8    1
    24     8     9    1
    25     9    10   am
    26    10    11    2
    27    10    12   am
    28    12    33    1
    29    33    34    1
    30    34    35    1
    31    34    36    1
    32    34    37    1
    33     9    13    1
    34     7     2   ar
    35    13     4    1
    36    24    17   ar
    37    32    28   ar
    38     1    14    1
    39     1    15    1
    40    12    16    1
