@<TRIPOS>MOLECULE
*****
 23 25 0 0 0
SMALL
GASTEIGER

@<TRIPOS>ATOM
      1 N          68.3418   93.0186   14.9634 N.pl3   1  UNL1       -0.3375
      2 C          67.2294   92.6363   14.0326 C.ar    1  UNL1        0.1567
      3 N          67.0630   93.1059   12.6178 N.ar    1  UNL1       -0.2245
      4 C          65.8188   92.4771   12.0640 C.ar    1  UNL1        0.0892
      5 C          65.1567   92.5752   10.7216 C.ar    1  UNL1        0.0198
      6 C          63.8921   91.8150   10.4519 C.ar    1  UNL1        0.0061
      7 C          63.2895   90.9569   11.5245 C.ar    1  UNL1        0.0539
      8 C          63.9516   90.8588   12.8668 C.ar    1  UNL1        0.0126
      9 C          65.2162   91.6190   13.1366 C.ar    1  UNL1        0.0498
     10 S          66.0880   91.7174   14.3532 S.2     1  UNL1       -0.0520
     11 H          69.0494   93.6318   14.6592 H       1  UNL1        0.1442
     12 H          68.3644   92.6562   15.8785 H       1  UNL1        0.1442
     13 C          62.0248   90.1967   11.2546 C.2     1  UNL1        0.2459
     14 O          61.2582   89.5886   12.3915 O.2     1  UNL1       -0.2701
     15 N          61.5267   90.0447    9.8480 N.am    1  UNL1       -0.3005
     16 H          62.0298   90.4439    9.1018 H       1  UNL1        0.1498
     17 C          60.2620   89.2846    9.5781 C.3     1  UNL1        0.0949
     18 C          60.3206   87.9470    8.9019 C.3     1  UNL1        0.0542
     19 C          61.2106   86.8695    9.4469 C.ar    1  UNL1        0.0090
     20 C          62.2297   86.0906    8.6693 C.ar    1  UNL1        0.0027
     21 C          62.8867   85.1214    9.6070 C.ar    1  UNL1        0.0072
     22 C          62.2734   85.3014   10.9641 C.ar    1  UNL1        0.0351
     23 S          61.2376   86.3818   10.8651 S.2     1  UNL1       -0.0907
@<TRIPOS>BOND
     1     1     2    1
     2     2     3   ar
     3     3     4   ar
     4     4     5   ar
     5     5     6   ar
     6     6     7   ar
     7     7    13    1
     8    13    14    2
     9    13    15   am
    10    15    17    1
    11    17    18    1
    12    18    19    1
    13    19    20   ar
    14    20    21   ar
    15    21    22   ar
    16    22    23   ar
    17     7     8   ar
    18     8     9   ar
    19     9    10   ar
    20    10     2   ar
    21     9     4   ar
    22    23    19   ar
    23     1    11    1
    24     1    12    1
    25    15    16    1
@<TRIPOS>MOLECULE
*****
 23 25 0 0 0
SMALL
GASTEIGER

@<TRIPOS>ATOM
      1 N          63.5649   82.7030   15.0617 N.pl3   1  UNL1       -0.3375
      2 C          63.5770   84.1841   15.2985 C.ar    1  UNL1        0.1567
      3 N          63.0044   84.8911   16.4910 N.ar    1  UNL1       -0.2245
      4 C          63.2374   86.3623   16.3139 C.ar    1  UNL1        0.0892
      5 C          62.8896   87.5439   17.1699 C.ar    1  UNL1        0.0198
      6 C          63.2585   88.9276   16.7239 C.ar    1  UNL1        0.0061
      7 C          63.9752   89.1299   15.4218 C.ar    1  UNL1        0.0539
      8 C          64.3230   87.9483   14.5658 C.ar    1  UNL1        0.0126
      9 C          63.9541   86.5645   15.0118 C.ar    1  UNL1        0.0498
     10 S          64.1640   85.2184   14.3843 S.2     1  UNL1       -0.0520
     11 H          63.1535   82.1020   15.7241 H       1  UNL1        0.1442
     12 H          63.9683   82.3319   14.2439 H       1  UNL1        0.1442
     13 C          64.3440   90.5138   14.9758 C.2     1  UNL1        0.2459
     14 O          63.6762   91.7048   15.5966 O.2     1  UNL1       -0.2701
     15 N          65.3807   90.7066   13.9091 N.am    1  UNL1       -0.3005
     16 H          65.8191   89.9249   13.5016 H       1  UNL1        0.1498
     17 C          65.7496   92.0905   13.4631 C.3     1  UNL1        0.0949
     18 C          65.1786   92.6461   12.1922 C.3     1  UNL1        0.0542
     19 C          66.0868   93.2534   11.1645 C.ar    1  UNL1        0.0090
     20 C          67.1590   92.5346   10.4004 C.ar    1  UNL1        0.0027
     21 C          67.8171   93.5231    9.4840 C.ar    1  UNL1        0.0072
     22 C          67.1516   94.8529    9.6818 C.ar    1  UNL1        0.0351
     23 S          66.0823   94.6861   10.7204 S.2     1  UNL1       -0.0907
@<TRIPOS>BOND
     1     1     2    1
     2     2     3   ar
     3     3     4   ar
     4     4     5   ar
     5     5     6   ar
     6     6     7   ar
     7     7    13    1
     8    13    14    2
     9    13    15   am
    10    15    17    1
    11    17    18    1
    12    18    19    1
    13    19    20   ar
    14    20    21   ar
    15    21    22   ar
    16    22    23   ar
    17     7     8   ar
    18     8     9   ar
    19     9    10   ar
    20    10     2   ar
    21     9     4   ar
    22    23    19   ar
    23     1    11    1
    24     1    12    1
    25    15    16    1
@<TRIPOS>MOLECULE
*****
 23 25 0 0 0
SMALL
GASTEIGER

@<TRIPOS>ATOM
      1 N          67.2580   95.0417   10.7513 N.pl3   1  UNL1       -0.3375
      2 C          66.4170   93.9090   11.2611 C.ar    1  UNL1        0.1567
      3 N          66.5138   93.2811   12.6198 N.ar    1  UNL1       -0.2245
      4 C          65.4882   92.1894   12.7001 C.ar    1  UNL1        0.0892
      5 C          65.1252   91.2319   13.7962 C.ar    1  UNL1        0.0198
      6 C          64.0315   90.2278   13.5831 C.ar    1  UNL1        0.0061
      7 C          63.3008   90.1811   12.2739 C.ar    1  UNL1        0.0539
      8 C          63.6638   91.1386   11.1779 C.ar    1  UNL1        0.0126
      9 C          64.7575   92.1428   11.3910 C.ar    1  UNL1        0.0498
     10 S          65.3315   93.2055   10.5016 S.2     1  UNL1       -0.0520
     11 H          67.9494   95.4399   11.3281 H       1  UNL1        0.1442
     12 H          67.1187   95.3868    9.8398 H       1  UNL1        0.1442
     13 C          62.2071   89.1768   12.0608 C.2     1  UNL1        0.2459
     14 O          60.7918   89.5222   12.4181 O.2     1  UNL1       -0.2701
     15 N          62.5287   87.8273   11.4906 N.am    1  UNL1       -0.3005
     16 H          63.4577   87.6006   11.2561 H       1  UNL1        0.1498
     17 C          61.4350   86.8230   11.2775 C.3     1  UNL1        0.0949
     18 C          61.6997   85.5852   10.4727 C.3     1  UNL1        0.0542
     19 C          62.7435   84.6067   10.9233 C.ar    1  UNL1        0.0090
     20 C          63.6210   83.7802   10.0307 C.ar    1  UNL1        0.0027
     21 C          64.5129   82.9455   10.9013 C.ar    1  UNL1        0.0072
     22 C          64.1864   83.2562   12.3320 C.ar    1  UNL1        0.0351
     23 S          63.0929   84.2829   12.3456 S.2     1  UNL1       -0.0907
@<TRIPOS>BOND
     1     1     2    1
     2     2     3   ar
     3     3     4   ar
     4     4     5   ar
     5     5     6   ar
     6     6     7   ar
     7     7    13    1
     8    13    14    2
     9    13    15   am
    10    15    17    1
    11    17    18    1
    12    18    19    1
    13    19    20   ar
    14    20    21   ar
    15    21    22   ar
    16    22    23   ar
    17     7     8   ar
    18     8     9   ar
    19     9    10   ar
    20    10     2   ar
    21     9     4   ar
    22    23    19   ar
    23     1    11    1
    24     1    12    1
    25    15    16    1
@<TRIPOS>MOLECULE
*****
 23 25 0 0 0
SMALL
GASTEIGER

@<TRIPOS>ATOM
      1 N          58.6446   88.9902    6.6751 N.pl3   1  UNL1       -0.3375
      2 C          59.5397   88.5455    7.7936 C.ar    1  UNL1        0.1567
      3 N          60.3335   89.4418    8.6972 N.ar    1  UNL1       -0.2245
      4 C          61.0826   88.5767    9.6669 C.ar    1  UNL1        0.0892
      5 C          62.0232   88.9071   10.7876 C.ar    1  UNL1        0.0198
      6 C          62.6329   87.8065   11.6042 C.ar    1  UNL1        0.0061
      7 C          62.3021   86.3754   11.3000 C.ar    1  UNL1        0.0539
      8 C          61.3615   86.0450   10.1793 C.ar    1  UNL1        0.0126
      9 C          60.7517   87.1456    9.3627 C.ar    1  UNL1        0.0498
     10 S          59.7982   87.1264    8.2050 S.2     1  UNL1       -0.0520
     11 H          58.5389   89.9495    6.4810 H       1  UNL1        0.1442
     12 H          58.1628   88.3227    6.1352 H       1  UNL1        0.1442
     13 C          62.9119   85.2747   12.1166 C.2     1  UNL1        0.2459
     14 O          63.1186   83.9180   11.5111 O.2     1  UNL1       -0.2701
     15 N          63.3149   85.5308   13.5385 N.am    1  UNL1       -0.3005
     16 H          63.1792   86.4213   13.9358 H       1  UNL1        0.1498
     17 C          63.9247   84.4301   14.3551 C.3     1  UNL1        0.0949
     18 C          63.0431   83.4366   15.0520 C.3     1  UNL1        0.0542
     19 C          62.6771   82.1514   14.3708 C.ar    1  UNL1        0.0090
     20 C          61.3109   81.5335   14.3291 C.ar    1  UNL1        0.0027
     21 C          61.4024   80.2586   13.5442 C.ar    1  UNL1        0.0072
     22 C          62.8253   80.0884   13.1008 C.ar    1  UNL1        0.0351
     23 S          63.6131   81.2582   13.6117 S.2     1  UNL1       -0.0907
@<TRIPOS>BOND
     1     1     2    1
     2     2     3   ar
     3     3     4   ar
     4     4     5   ar
     5     5     6   ar
     6     6     7   ar
     7     7    13    1
     8    13    14    2
     9    13    15   am
    10    15    17    1
    11    17    18    1
    12    18    19    1
    13    19    20   ar
    14    20    21   ar
    15    21    22   ar
    16    22    23   ar
    17     7     8   ar
    18     8     9   ar
    19     9    10   ar
    20    10     2   ar
    21     9     4   ar
    22    23    19   ar
    23     1    11    1
    24     1    12    1
    25    15    16    1
@<TRIPOS>MOLECULE
*****
 23 25 0 0 0
SMALL
GASTEIGER

@<TRIPOS>ATOM
      1 N          59.7612   85.5991    7.3336 N.pl3   1  UNL1       -0.3375
      2 C          60.2336   86.6455    8.2990 C.ar    1  UNL1        0.1567
      3 N          59.6353   88.0085    8.4844 N.ar    1  UNL1       -0.2245
      4 C          60.4192   88.7180    9.5484 C.ar    1  UNL1        0.0892
      5 C          60.2869   90.0864   10.1482 C.ar    1  UNL1        0.0198
      6 C          61.2374   90.5304   11.2203 C.ar    1  UNL1        0.0061
      7 C          62.3202   89.6060   11.6925 C.ar    1  UNL1        0.0539
      8 C          62.4525   88.2376   11.0926 C.ar    1  UNL1        0.0126
      9 C          61.5020   87.7936   10.0205 C.ar    1  UNL1        0.0498
     10 S          61.3872   86.5127    9.2484 S.2     1  UNL1       -0.0520
     11 H          58.9907   85.7812    6.7484 H       1  UNL1        0.1442
     12 H          60.2216   84.7303    7.2852 H       1  UNL1        0.1442
     13 C          63.2707   90.0500   12.7646 C.2     1  UNL1        0.2459
     14 O          63.2431   89.3905   14.1115 O.2     1  UNL1       -0.2701
     15 N          64.2487   91.1536   12.4898 N.am    1  UNL1       -0.3005
     16 H          64.2668   91.5865   11.6058 H       1  UNL1        0.1498
     17 C          65.1993   91.5976   13.5619 C.3     1  UNL1        0.0949
     18 C          66.5191   92.2054   13.1894 C.3     1  UNL1        0.0542
     19 C          66.6663   92.9401   11.8901 C.ar    1  UNL1        0.0090
     20 C          67.3436   92.4219   10.6560 C.ar    1  UNL1        0.0027
     21 C          67.2580   93.4836    9.5998 C.ar    1  UNL1        0.0072
     22 C          66.5279   94.6579   10.1812 C.ar    1  UNL1        0.0351
     23 S          66.1622   94.3220   11.5966 S.2     1  UNL1       -0.0907
@<TRIPOS>BOND
     1     1     2    1
     2     2     3   ar
     3     3     4   ar
     4     4     5   ar
     5     5     6   ar
     6     6     7   ar
     7     7    13    1
     8    13    14    2
     9    13    15   am
    10    15    17    1
    11    17    18    1
    12    18    19    1
    13    19    20   ar
    14    20    21   ar
    15    21    22   ar
    16    22    23   ar
    17     7     8   ar
    18     8     9   ar
    19     9    10   ar
    20    10     2   ar
    21     9     4   ar
    22    23    19   ar
    23     1    11    1
    24     1    12    1
    25    15    16    1
@<TRIPOS>MOLECULE
*****
 23 25 0 0 0
SMALL
GASTEIGER

@<TRIPOS>ATOM
      1 N          63.8154   82.5551   15.1896 N.pl3   1  UNL1       -0.3375
      2 C          63.7560   84.0436   15.3644 C.ar    1  UNL1        0.1567
      3 N          63.1885   84.7705   16.5475 N.ar    1  UNL1       -0.2245
      4 C          63.3354   86.2428   16.3012 C.ar    1  UNL1        0.0892
      5 C          62.9548   87.4404   17.1203 C.ar    1  UNL1        0.0198
      6 C          63.2324   88.8210   16.6041 C.ar    1  UNL1        0.0061
      7 C          63.8907   89.0042   15.2687 C.ar    1  UNL1        0.0539
      8 C          64.2713   87.8066   14.4496 C.ar    1  UNL1        0.0126
      9 C          63.9936   86.4260   14.9659 C.ar    1  UNL1        0.0498
     10 S          64.2536   85.0668   14.3869 S.2     1  UNL1       -0.0520
     11 H          63.4607   81.9625   15.8912 H       1  UNL1        0.1442
     12 H          64.2091   82.1707   14.3732 H       1  UNL1        0.1442
     13 C          64.1684   90.3850   14.7525 C.2     1  UNL1        0.2459
     14 O          64.1618   91.5529   15.6937 O.2     1  UNL1       -0.2701
     15 N          64.4526   90.5977   13.2952 N.am    1  UNL1       -0.3005
     16 H          64.4569   89.8312   12.6774 H       1  UNL1        0.1498
     17 C          64.7302   91.9785   12.7789 C.3     1  UNL1        0.0949
     18 C          66.1420   92.4785   12.6962 C.3     1  UNL1        0.0542
     19 C          66.9564   92.6356   13.9461 C.ar    1  UNL1        0.0090
     20 C          67.6564   91.5348   14.6865 C.ar    1  UNL1        0.0027
     21 C          68.3464   92.1400   15.8730 C.ar    1  UNL1        0.0072
     22 C          68.0728   93.6148   15.8658 C.ar    1  UNL1        0.0351
     23 S          67.2137   93.9211   14.6749 S.2     1  UNL1       -0.0907
@<TRIPOS>BOND
     1     1     2    1
     2     2     3   ar
     3     3     4   ar
     4     4     5   ar
     5     5     6   ar
     6     6     7   ar
     7     7    13    1
     8    13    14    2
     9    13    15   am
    10    15    17    1
    11    17    18    1
    12    18    19    1
    13    19    20   ar
    14    20    21   ar
    15    21    22   ar
    16    22    23   ar
    17     7     8   ar
    18     8     9   ar
    19     9    10   ar
    20    10     2   ar
    21     9     4   ar
    22    23    19   ar
    23     1    11    1
    24     1    12    1
    25    15    16    1
@<TRIPOS>MOLECULE
*****
 23 25 0 0 0
SMALL
GASTEIGER

@<TRIPOS>ATOM
      1 N          58.8390   88.3193    7.3098 N.pl3   1  UNL1       -0.3375
      2 C          59.8066   87.5062    8.1176 C.ar    1  UNL1        0.1567
      3 N          60.8663   86.5967    7.5700 N.ar    1  UNL1       -0.2245
      4 C          61.5990   85.9881    8.7288 C.ar    1  UNL1        0.0892
      5 C          62.7404   85.0173    8.7964 C.ar    1  UNL1        0.0198
      6 C          63.2749   84.5797   10.1279 C.ar    1  UNL1        0.0061
      7 C          62.6680   85.1130   11.3917 C.ar    1  UNL1        0.0539
      8 C          61.5267   86.0839   11.3241 C.ar    1  UNL1        0.0126
      9 C          60.9922   86.5215    9.9926 C.ar    1  UNL1        0.0498
     10 S          59.8844   87.4596    9.6149 S.2     1  UNL1       -0.0520
     11 H          58.8664   88.2831    6.3264 H       1  UNL1        0.1442
     12 H          58.1765   88.8893    7.7631 H       1  UNL1        0.1442
     13 C          63.2026   84.6754   12.7232 C.2     1  UNL1        0.2459
     14 O          64.4863   83.9032   12.7989 O.2     1  UNL1       -0.2701
     15 N          62.4534   85.0100   13.9789 N.am    1  UNL1       -0.3005
     16 H          61.6109   85.5168   13.9291 H       1  UNL1        0.1498
     17 C          62.9880   84.5724   15.3104 C.3     1  UNL1        0.0949
     18 C          63.8901   85.4810   16.0917 C.3     1  UNL1        0.0542
     19 C          63.7682   86.9685   15.9424 C.ar    1  UNL1        0.0090
     20 C          64.3270   87.7907   14.8191 C.ar    1  UNL1        0.0027
     21 C          63.9702   89.2254   15.0726 C.ar    1  UNL1        0.0072
     22 C          63.1908   89.2899   16.3527 C.ar    1  UNL1        0.0351
     23 S          63.0660   87.8951   16.8902 S.2     1  UNL1       -0.0907
@<TRIPOS>BOND
     1     1     2    1
     2     2     3   ar
     3     3     4   ar
     4     4     5   ar
     5     5     6   ar
     6     6     7   ar
     7     7    13    1
     8    13    14    2
     9    13    15   am
    10    15    17    1
    11    17    18    1
    12    18    19    1
    13    19    20   ar
    14    20    21   ar
    15    21    22   ar
    16    22    23   ar
    17     7     8   ar
    18     8     9   ar
    19     9    10   ar
    20    10     2   ar
    21     9     4   ar
    22    23    19   ar
    23     1    11    1
    24     1    12    1
    25    15    16    1
@<TRIPOS>MOLECULE
*****
 23 25 0 0 0
SMALL
GASTEIGER

@<TRIPOS>ATOM
      1 N          63.5226   80.5868   14.2379 N.pl3   1  UNL1       -0.3375
      2 C          63.3530   81.7000   13.2469 C.ar    1  UNL1        0.1567
      3 N          63.8212   81.6908   11.8218 N.ar    1  UNL1       -0.2245
      4 C          63.4430   83.0029   11.2011 C.ar    1  UNL1        0.0892
      5 C          63.6470   83.5568    9.8222 C.ar    1  UNL1        0.0198
      6 C          63.1492   84.9309    9.4847 C.ar    1  UNL1        0.0061
      7 C          62.4473   85.7511   10.5262 C.ar    1  UNL1        0.0539
      8 C          62.2432   85.1972   11.9051 C.ar    1  UNL1        0.0126
      9 C          62.7410   83.8231   12.2426 C.ar    1  UNL1        0.0498
     10 S          62.6855   83.0178   13.5069 S.2     1  UNL1       -0.0520
     11 H          63.9772   79.7553   13.9711 H       1  UNL1        0.1442
     12 H          63.1793   80.6877   15.1550 H       1  UNL1        0.1442
     13 C          61.9494   87.1253   10.1886 C.2     1  UNL1        0.2459
     14 O          61.2362   87.3669    8.8914 O.2     1  UNL1       -0.2701
     15 N          62.1648   88.2578   11.1484 N.am    1  UNL1       -0.3005
     16 H          62.6329   88.0992   11.9998 H       1  UNL1        0.1498
     17 C          61.6670   89.6319   10.8108 C.3     1  UNL1        0.0949
     18 C          62.6158   90.6628   10.2753 C.3     1  UNL1        0.0542
     19 C          63.6715   91.2457   11.1673 C.ar    1  UNL1        0.0090
     20 C          64.7691   92.1760   10.7431 C.ar    1  UNL1        0.0027
     21 C          65.5909   92.5059   11.9537 C.ar    1  UNL1        0.0072
     22 C          65.0013   91.7795   13.1262 C.ar    1  UNL1        0.0351
     23 S          63.8150   91.0006   12.6401 S.2     1  UNL1       -0.0907
@<TRIPOS>BOND
     1     1     2    1
     2     2     3   ar
     3     3     4   ar
     4     4     5   ar
     5     5     6   ar
     6     6     7   ar
     7     7    13    1
     8    13    14    2
     9    13    15   am
    10    15    17    1
    11    17    18    1
    12    18    19    1
    13    19    20   ar
    14    20    21   ar
    15    21    22   ar
    16    22    23   ar
    17     7     8   ar
    18     8     9   ar
    19     9    10   ar
    20    10     2   ar
    21     9     4   ar
    22    23    19   ar
    23     1    11    1
    24     1    12    1
    25    15    16    1
@<TRIPOS>MOLECULE
*****
 23 25 0 0 0
SMALL
GASTEIGER

@<TRIPOS>ATOM
      1 N          63.3471   80.7526   13.7958 N.pl3   1  UNL1       -0.3375
      2 C          63.5134   82.2389   13.9102 C.ar    1  UNL1        0.1567
      3 N          64.1416   82.9700   15.0595 N.ar    1  UNL1       -0.2245
      4 C          64.0971   84.4381   14.7551 C.ar    1  UNL1        0.0892
      5 C          64.5689   85.6371   15.5230 C.ar    1  UNL1        0.0198
      6 C          64.3850   87.0125   14.9534 C.ar    1  UNL1        0.0061
      7 C          63.7293   87.1888   13.6158 C.ar    1  UNL1        0.0539
      8 C          63.2575   85.9898   12.8479 C.ar    1  UNL1        0.0126
      9 C          63.4414   84.6144   13.4176 C.ar    1  UNL1        0.0498
     10 S          63.0807   83.2553   12.8954 S.2     1  UNL1       -0.0520
     11 H          63.6653   80.1646   14.5184 H       1  UNL1        0.1442
     12 H          62.9199   80.3650   12.9979 H       1  UNL1        0.1442
     13 C          63.5455   88.5642   13.0462 C.2     1  UNL1        0.2459
     14 O          62.6445   88.7726   11.8652 O.2     1  UNL1       -0.2701
     15 N          64.2626   89.7312   13.6576 N.am    1  UNL1       -0.3005
     16 H          64.8539   89.5945   14.4327 H       1  UNL1        0.1498
     17 C          64.0787   91.1067   13.0879 C.3     1  UNL1        0.0949
     18 C          65.2687   91.9936   12.8704 C.3     1  UNL1        0.0542
     19 C          66.2560   92.2090   13.9789 C.ar    1  UNL1        0.0090
     20 C          65.9268   92.5980   15.3897 C.ar    1  UNL1        0.0027
     21 C          67.2133   92.7027   16.1539 C.ar    1  UNL1        0.0072
     22 C          68.3376   92.3784   15.2153 C.ar    1  UNL1        0.0351
     23 S          67.7460   92.0734   13.8711 S.2     1  UNL1       -0.0907
@<TRIPOS>BOND
     1     1     2    1
     2     2     3   ar
     3     3     4   ar
     4     4     5   ar
     5     5     6   ar
     6     6     7   ar
     7     7    13    1
     8    13    14    2
     9    13    15   am
    10    15    17    1
    11    17    18    1
    12    18    19    1
    13    19    20   ar
    14    20    21   ar
    15    21    22   ar
    16    22    23   ar
    17     7     8   ar
    18     8     9   ar
    19     9    10   ar
    20    10     2   ar
    21     9     4   ar
    22    23    19   ar
    23     1    11    1
    24     1    12    1
    25    15    16    1
