@<TRIPOS>MOLECULE
*****
 30 32 0 0 0
SMALL
GASTEIGER

@<TRIPOS>ATOM
      1 C          61.5579   87.9788    9.8388 C.ar    1  UNL1       -0.0181
      2 C          60.1360   88.4319    9.9908 C.ar    1  UNL1       -0.0040
      3 C          59.8338   89.7467   10.6463 C.ar    1  UNL1       -0.0006
      4 C          60.9535   90.6086   11.1499 C.ar    1  UNL1       -0.0042
      5 C          62.3753   90.1556   10.9979 C.ar    1  UNL1       -0.0204
      6 C          62.6775   88.8407   10.3423 C.ar    1  UNL1       -0.0081
      7 C          63.4949   91.0175   11.5014 C.3     1  UNL1        0.0519
      8 C          64.3231   91.8115   10.5352 C.3     1  UNL1        0.0119
      9 C          65.4427   92.6734   11.0387 C.3     1  UNL1        0.0591
     10 C          65.7342   92.7413   12.5085 C.3     1  UNL1        0.1420
     11 O          66.8539   93.6032   13.0121 O.3     1  UNL1       -0.3818
     12 C          64.9060   91.9473   13.4749 C.3     1  UNL1        0.1642
     13 O          65.1975   92.0152   14.9447 O.3     1  UNL1       -0.3795
     14 C          63.7864   91.0854   12.9713 C.3     1  UNL1        0.1435
     15 O          62.9582   90.2914   13.9376 O.3     1  UNL1       -0.3816
     16 H          66.9063   93.5334   13.9781 H       1  UNL1        0.2104
     17 H          65.9460   92.6127   15.0986 H       1  UNL1        0.2105
     18 H          62.2830   89.7930   13.4512 H       1  UNL1        0.2105
     19 C          66.2709   93.4674   10.0724 C.3     1  UNL1        0.1396
     20 O          67.6685   93.8712   10.4377 O.3     1  UNL1       -0.3819
     21 H          67.6412   94.4957   11.1794 H       1  UNL1        0.2104
     22 C          61.8601   86.6640    9.1833 C.3     1  UNL1        0.0526
     23 C          63.6876   83.3224   11.5799 C.ar    1  UNL1        0.1387
     24 C          62.8264   84.3469   12.2570 C.ar    1  UNL1        0.0366
     25 C          62.2172   85.4608   11.4581 C.ar    1  UNL1       -0.0008
     26 C          62.4693   85.5501    9.9822 C.ar    1  UNL1       -0.0176
     27 C          63.3305   84.5255    9.3051 C.ar    1  UNL1       -0.0008
     28 C          63.9397   83.4117   10.1040 C.ar    1  UNL1        0.0366
     29 C          63.4148   81.2440   13.1149 C.3     1  UNL1        0.2525
     30 O          64.2968   82.2085   12.3788 O.3     1  UNL1       -0.4714
@<TRIPOS>BOND
     1    29    30    1
     2    30    23    1
     3    23    24   ar
     4    24    25   ar
     5    25    26   ar
     6    26    22    1
     7    22     1    1
     8     1     2   ar
     9     2     3   ar
    10     3     4   ar
    11     4     5   ar
    12     7     5    1
    13     7     8    1
    14     8     9    1
    15     9    19    1
    16    19    20    1
    17     9    10    1
    18    10    11    1
    19    10    12    1
    20    12    13    1
    21    12    14    1
    22    14    15    1
    23     5     6   ar
    24    26    27   ar
    25    27    28   ar
    26    28    23   ar
    27     6     1   ar
    28    14     7    1
    29    20    21    1
    30    11    16    1
    31    13    17    1
    32    15    18    1
@<TRIPOS>MOLECULE
*****
 30 32 0 0 0
SMALL
GASTEIGER

@<TRIPOS>ATOM
      1 C          61.5164   87.6624   10.3150 C.ar    1  UNL1       -0.0181
      2 C          60.0996   87.9890   10.6843 C.ar    1  UNL1       -0.0040
      3 C          59.7886   89.2649   11.4091 C.ar    1  UNL1       -0.0006
      4 C          60.8943   90.2142   11.7647 C.ar    1  UNL1       -0.0042
      5 C          62.3109   89.8876   11.3954 C.ar    1  UNL1       -0.0204
      6 C          62.6220   88.6117   10.6706 C.ar    1  UNL1       -0.0081
      7 C          63.4165   90.8369   11.7510 C.3     1  UNL1        0.0519
      8 C          64.0225   90.8024   13.1227 C.3     1  UNL1        0.0119
      9 C          65.1281   91.7517   13.4783 C.3     1  UNL1        0.0591
     10 C          65.6278   92.7354   12.4622 C.3     1  UNL1        0.1420
     11 O          66.7335   93.6847   12.8178 O.3     1  UNL1       -0.3818
     12 C          65.0218   92.7699   11.0904 C.3     1  UNL1        0.1642
     13 O          65.5215   93.7537   10.0743 O.3     1  UNL1       -0.3795
     14 C          63.9162   91.8207   10.7348 C.3     1  UNL1        0.1435
     15 O          63.3102   91.8551    9.3631 O.3     1  UNL1       -0.3816
     16 H          66.9344   94.2478   12.0539 H       1  UNL1        0.2104
     17 H          66.2317   94.2877   10.4633 H       1  UNL1        0.2105
     18 H          62.6146   91.1821    9.3000 H       1  UNL1        0.2105
     19 C          65.7341   91.7172   14.8501 C.3     1  UNL1        0.1396
     20 O          65.7490   92.9566   15.6948 O.3     1  UNL1       -0.3819
     21 H          66.3205   93.6226   15.2816 H       1  UNL1        0.2104
     22 C          61.8274   86.3866    9.5902 C.3     1  UNL1        0.0526
     23 C          63.8349   82.9959   11.7635 C.ar    1  UNL1        0.1387
     24 C          64.0411   83.1674   10.2877 C.ar    1  UNL1        0.0366
     25 C          63.3719   84.2976    9.5633 C.ar    1  UNL1       -0.0008
     26 C          62.4966   85.2563   10.3146 C.ar    1  UNL1       -0.0176
     27 C          62.2904   85.0849   11.7904 C.ar    1  UNL1       -0.0008
     28 C          62.9596   83.9547   12.5149 C.ar    1  UNL1        0.0366
     29 C          63.7494   81.0884   13.5253 C.3     1  UNL1        0.2525
     30 O          64.5041   81.8657   12.4880 O.3     1  UNL1       -0.4714
@<TRIPOS>BOND
     1    29    30    1
     2    30    23    1
     3    23    24   ar
     4    24    25   ar
     5    25    26   ar
     6    26    22    1
     7    22     1    1
     8     1     2   ar
     9     2     3   ar
    10     3     4   ar
    11     4     5   ar
    12     7     5    1
    13     7     8    1
    14     8     9    1
    15     9    19    1
    16    19    20    1
    17     9    10    1
    18    10    11    1
    19    10    12    1
    20    12    13    1
    21    12    14    1
    22    14    15    1
    23     5     6   ar
    24    26    27   ar
    25    27    28   ar
    26    28    23   ar
    27     6     1   ar
    28    14     7    1
    29    20    21    1
    30    11    16    1
    31    13    17    1
    32    15    18    1
@<TRIPOS>MOLECULE
*****
 30 32 0 0 0
SMALL
GASTEIGER

@<TRIPOS>ATOM
      1 C          61.7142   89.1376    9.8869 C.ar    1  UNL1       -0.0181
      2 C          60.5145   88.9522    9.0056 C.ar    1  UNL1       -0.0040
      3 C          59.9567   87.5787    8.7771 C.ar    1  UNL1       -0.0006
      4 C          60.5985   86.3904    9.4300 C.ar    1  UNL1       -0.0042
      5 C          61.7981   86.5757   10.3112 C.ar    1  UNL1       -0.0204
      6 C          62.3559   87.9493   10.5397 C.ar    1  UNL1       -0.0081
      7 C          62.4398   85.3875   10.9641 C.3     1  UNL1        0.0519
      8 C          62.2748   85.1612   12.4377 C.3     1  UNL1        0.0119
      9 C          62.9166   83.9729   13.0905 C.3     1  UNL1        0.0591
     10 C          63.7234   83.0110   12.2698 C.3     1  UNL1        0.1420
     11 O          64.3651   81.8227   12.9226 O.3     1  UNL1       -0.3818
     12 C          63.8884   83.2372   10.7961 C.3     1  UNL1        0.1642
     13 O          64.6952   82.2753    9.9753 O.3     1  UNL1       -0.3795
     14 C          63.2467   84.4255   10.1432 C.3     1  UNL1        0.1435
     15 O          63.4117   84.6518    8.6697 O.3     1  UNL1       -0.3816
     16 H          64.8456   81.3076   12.2557 H       1  UNL1        0.2104
     17 H          65.0369   81.5700   10.5469 H       1  UNL1        0.2105
     18 H          62.9374   85.4574    8.4111 H       1  UNL1        0.2105
     19 C          62.7515   83.7467   14.5642 C.3     1  UNL1        0.1396
     20 O          62.4880   82.3653   15.0860 O.3     1  UNL1       -0.3819
     21 H          61.6195   82.0633   14.7771 H       1  UNL1        0.2104
     22 C          62.2720   90.5111   10.1153 C.3     1  UNL1        0.0526
     23 C          64.8764   91.3151   13.6958 C.ar    1  UNL1        0.1387
     24 C          63.7411   90.3402   13.7980 C.ar    1  UNL1        0.0366
     25 C          62.8729   90.0722   12.6045 C.ar    1  UNL1       -0.0008
     26 C          63.1401   90.7791   11.3088 C.ar    1  UNL1       -0.0176
     27 C          64.2755   91.7540   11.2066 C.ar    1  UNL1       -0.0008
     28 C          65.1436   92.0220   12.4002 C.ar    1  UNL1        0.0366
     29 C          66.5603   92.8401   14.9563 C.3     1  UNL1        0.2525
     30 O          65.7446   91.5831   14.8894 O.3     1  UNL1       -0.4714
@<TRIPOS>BOND
     1    29    30    1
     2    30    23    1
     3    23    24   ar
     4    24    25   ar
     5    25    26   ar
     6    26    22    1
     7    22     1    1
     8     1     2   ar
     9     2     3   ar
    10     3     4   ar
    11     4     5   ar
    12     7     5    1
    13     7     8    1
    14     8     9    1
    15     9    19    1
    16    19    20    1
    17     9    10    1
    18    10    11    1
    19    10    12    1
    20    12    13    1
    21    12    14    1
    22    14    15    1
    23     5     6   ar
    24    26    27   ar
    25    27    28   ar
    26    28    23   ar
    27     6     1   ar
    28    14     7    1
    29    20    21    1
    30    11    16    1
    31    13    17    1
    32    15    18    1
@<TRIPOS>MOLECULE
*****
 30 32 0 0 0
SMALL
GASTEIGER

@<TRIPOS>ATOM
      1 C          64.2112   86.9781   15.6317 C.ar    1  UNL1       -0.0181
      2 C          63.3673   87.3734   16.8072 C.ar    1  UNL1       -0.0040
      3 C          62.7695   88.7475   16.8731 C.ar    1  UNL1       -0.0006
      4 C          63.0156   89.7264   15.7635 C.ar    1  UNL1       -0.0042
      5 C          63.8595   89.3312   14.5881 C.ar    1  UNL1       -0.0204
      6 C          64.4573   87.9570   14.5222 C.ar    1  UNL1       -0.0081
      7 C          64.1055   90.3101   13.4785 C.3     1  UNL1        0.0519
      8 C          65.1396   91.3844   13.6417 C.3     1  UNL1        0.0119
      9 C          65.3857   92.3633   12.5321 C.3     1  UNL1        0.0591
     10 C          64.5977   92.2679   11.2593 C.3     1  UNL1        0.1420
     11 O          64.8438   93.2469   10.1497 O.3     1  UNL1       -0.3818
     12 C          63.5636   91.1937   11.0961 C.3     1  UNL1        0.1642
     13 O          62.7756   91.0983    9.8233 O.3     1  UNL1       -0.3795
     14 C          63.3175   90.2147   12.2057 C.3     1  UNL1        0.1435
     15 O          62.2834   89.1405   12.0425 O.3     1  UNL1       -0.3816
     16 H          64.2554   93.0462    9.4051 H       1  UNL1        0.2104
     17 H          63.0564   91.8005    9.2159 H       1  UNL1        0.2105
     18 H          62.2513   88.5979   12.8459 H       1  UNL1        0.2105
     19 C          66.4198   93.4376   12.6953 C.3     1  UNL1        0.1396
     20 O          66.0633   94.8691   12.4244 O.3     1  UNL1       -0.3819
     21 H          65.8620   94.9794   11.4819 H       1  UNL1        0.2104
     22 C          64.8089   85.6039   15.5659 C.3     1  UNL1        0.0526
     23 C          62.7024   82.3404   13.2939 C.ar    1  UNL1        0.1387
     24 C          62.1878   82.7733   14.6347 C.ar    1  UNL1        0.0366
     25 C          62.8900   83.8612   15.3920 C.ar    1  UNL1       -0.0008
     26 C          64.1068   84.5161   14.8086 C.ar    1  UNL1       -0.0176
     27 C          64.6214   84.0831   13.4678 C.ar    1  UNL1       -0.0008
     28 C          63.9192   82.9953   12.7105 C.ar    1  UNL1        0.0366
     29 C          62.4589   79.8305   12.6685 C.3     1  UNL1        0.2525
     30 O          62.0002   81.2525   12.5366 O.3     1  UNL1       -0.4714
@<TRIPOS>BOND
     1    29    30    1
     2    30    23    1
     3    23    24   ar
     4    24    25   ar
     5    25    26   ar
     6    26    22    1
     7    22     1    1
     8     1     2   ar
     9     2     3   ar
    10     3     4   ar
    11     4     5   ar
    12     7     5    1
    13     7     8    1
    14     8     9    1
    15     9    19    1
    16    19    20    1
    17     9    10    1
    18    10    11    1
    19    10    12    1
    20    12    13    1
    21    12    14    1
    22    14    15    1
    23     5     6   ar
    24    26    27   ar
    25    27    28   ar
    26    28    23   ar
    27     6     1   ar
    28    14     7    1
    29    20    21    1
    30    11    16    1
    31    13    17    1
    32    15    18    1
@<TRIPOS>MOLECULE
*****
 30 32 0 0 0
SMALL
GASTEIGER

@<TRIPOS>ATOM
      1 C          63.8272   86.1201   15.4171 C.ar    1  UNL1       -0.0181
      2 C          63.1995   86.2872   16.7693 C.ar    1  UNL1       -0.0040
      3 C          62.9658   87.6616   17.3229 C.ar    1  UNL1       -0.0006
      4 C          63.3597   88.8688   16.5245 C.ar    1  UNL1       -0.0042
      5 C          63.9873   88.7017   15.1724 C.ar    1  UNL1       -0.0204
      6 C          64.2210   87.3273   14.6187 C.ar    1  UNL1       -0.0081
      7 C          64.3812   89.9089   14.3740 C.3     1  UNL1        0.0519
      8 C          65.3867   90.8765   14.9240 C.3     1  UNL1        0.0119
      9 C          65.7805   92.0838   14.1256 C.3     1  UNL1        0.0591
     10 C          65.1689   92.3234   12.7771 C.3     1  UNL1        0.1420
     11 O          65.5628   93.5306   11.9787 O.3     1  UNL1       -0.3818
     12 C          64.1633   91.3557   12.2270 C.3     1  UNL1        0.1642
     13 O          63.5517   91.5953   10.8786 O.3     1  UNL1       -0.3795
     14 C          63.7694   90.1485   13.0254 C.3     1  UNL1        0.1435
     15 O          62.7639   89.1809   12.4754 O.3     1  UNL1       -0.3816
     16 H          65.0784   93.5345   11.1383 H       1  UNL1        0.2104
     17 H          63.9124   92.4125   10.5005 H       1  UNL1        0.2105
     18 H          62.6239   88.4630   13.1126 H       1  UNL1        0.2105
     19 C          66.7861   93.0514   14.6757 C.3     1  UNL1        0.1396
     20 O          68.1356   93.1770   14.0331 O.3     1  UNL1       -0.3819
     21 H          68.6272   92.3488   14.1488 H       1  UNL1        0.2104
     22 C          64.0609   84.7458   14.8634 C.3     1  UNL1        0.0526
     23 C          63.4771   83.9602   10.4711 C.ar    1  UNL1        0.1387
     24 C          64.5221   83.2034   11.2360 C.ar    1  UNL1        0.0366
     25 C          64.7167   83.4652   12.7001 C.ar    1  UNL1       -0.0008
     26 C          63.8663   84.4839   13.3993 C.ar    1  UNL1       -0.0176
     27 C          62.8213   85.2408   12.6345 C.ar    1  UNL1       -0.0008
     28 C          62.6267   84.9790   11.1704 C.ar    1  UNL1        0.0366
     29 C          63.0175   84.8392    8.0699 C.3     1  UNL1        0.2525
     30 O          63.2825   83.6984    9.0071 O.3     1  UNL1       -0.4714
@<TRIPOS>BOND
     1    29    30    1
     2    30    23    1
     3    23    24   ar
     4    24    25   ar
     5    25    26   ar
     6    26    22    1
     7    22     1    1
     8     1     2   ar
     9     2     3   ar
    10     3     4   ar
    11     4     5   ar
    12     7     5    1
    13     7     8    1
    14     8     9    1
    15     9    19    1
    16    19    20    1
    17     9    10    1
    18    10    11    1
    19    10    12    1
    20    12    13    1
    21    12    14    1
    22    14    15    1
    23     5     6   ar
    24    26    27   ar
    25    27    28   ar
    26    28    23   ar
    27     6     1   ar
    28    14     7    1
    29    20    21    1
    30    11    16    1
    31    13    17    1
    32    15    18    1
@<TRIPOS>MOLECULE
*****
 30 32 0 0 0
SMALL
GASTEIGER

@<TRIPOS>ATOM
      1 C          63.7845   84.8343   13.5739 C.ar    1  UNL1       -0.0181
      2 C          64.1737   83.4956   13.0201 C.ar    1  UNL1       -0.0040
      3 C          63.8334   83.1427   11.6026 C.ar    1  UNL1       -0.0006
      4 C          63.1038   84.1283   10.7387 C.ar    1  UNL1       -0.0042
      5 C          62.7146   85.4669   11.2924 C.ar    1  UNL1       -0.0204
      6 C          63.0550   85.8199   12.7100 C.ar    1  UNL1       -0.0081
      7 C          61.9851   86.4526   10.4285 C.3     1  UNL1        0.0519
      8 C          61.0991   85.9666    9.3200 C.3     1  UNL1        0.0119
      9 C          60.3696   86.9523    8.4561 C.3     1  UNL1        0.0591
     10 C          60.5260   88.4239    8.7008 C.3     1  UNL1        0.1420
     11 O          59.7965   89.4095    7.8369 O.3     1  UNL1       -0.3818
     12 C          61.4120   88.9099    9.8093 C.3     1  UNL1        0.1642
     13 O          61.5685   90.3815   10.0540 O.3     1  UNL1       -0.3795
     14 C          62.1416   87.9242   10.6732 C.3     1  UNL1        0.1435
     15 O          63.0276   88.4102   11.7817 O.3     1  UNL1       -0.3816
     16 H          60.0062   90.3110    8.1270 H       1  UNL1        0.2104
     17 H          61.0335   90.8746    9.4124 H       1  UNL1        0.2105
     18 H          63.4202   87.6500   12.2386 H       1  UNL1        0.2105
     19 C          59.4836   86.4662    7.3476 C.3     1  UNL1        0.1396
     20 O          58.0114   86.3003    7.5821 O.3     1  UNL1       -0.3819
     21 H          57.8648   85.5927    8.2291 H       1  UNL1        0.2104
     22 C          64.1248   85.1873   14.9915 C.3     1  UNL1        0.0526
     23 C          63.4870   89.3857   16.4801 C.ar    1  UNL1        0.1387
     24 C          62.9737   88.2220   17.2752 C.ar    1  UNL1        0.0366
     25 C          63.1863   86.8225   16.7790 C.ar    1  UNL1       -0.0008
     26 C          63.9122   86.5867   15.4877 C.ar    1  UNL1       -0.0176
     27 C          64.4255   87.7505   14.6926 C.ar    1  UNL1       -0.0008
     28 C          64.2128   89.1500   15.1888 C.ar    1  UNL1        0.0366
     29 C          64.1510   91.8975   16.4822 C.3     1  UNL1        0.2525
     30 O          63.2743   90.7852   16.9763 O.3     1  UNL1       -0.4714
@<TRIPOS>BOND
     1    29    30    1
     2    30    23    1
     3    23    24   ar
     4    24    25   ar
     5    25    26   ar
     6    26    22    1
     7    22     1    1
     8     1     2   ar
     9     2     3   ar
    10     3     4   ar
    11     4     5   ar
    12     7     5    1
    13     7     8    1
    14     8     9    1
    15     9    19    1
    16    19    20    1
    17     9    10    1
    18    10    11    1
    19    10    12    1
    20    12    13    1
    21    12    14    1
    22    14    15    1
    23     5     6   ar
    24    26    27   ar
    25    27    28   ar
    26    28    23   ar
    27     6     1   ar
    28    14     7    1
    29    20    21    1
    30    11    16    1
    31    13    17    1
    32    15    18    1
@<TRIPOS>MOLECULE
*****
 30 32 0 0 0
SMALL
GASTEIGER

@<TRIPOS>ATOM
      1 C          62.1381   88.6229   11.1827 C.ar    1  UNL1       -0.0181
      2 C          61.7967   88.4926    9.7278 C.ar    1  UNL1       -0.0040
      3 C          61.8318   87.1465    9.0669 C.ar    1  UNL1       -0.0006
      4 C          62.2083   85.9308    9.8608 C.ar    1  UNL1       -0.0042
      5 C          62.5497   86.0611   11.3156 C.ar    1  UNL1       -0.0204
      6 C          62.5146   87.4072   11.9765 C.ar    1  UNL1       -0.0081
      7 C          62.9263   84.8453   12.1094 C.3     1  UNL1        0.0519
      8 C          62.6413   83.4767   11.5657 C.3     1  UNL1        0.0119
      9 C          63.0179   82.2610   12.3596 C.3     1  UNL1        0.0591
     10 C          63.6793   82.4139   13.6971 C.3     1  UNL1        0.1420
     11 O          64.0558   81.1981   14.4910 O.3     1  UNL1       -0.3818
     12 C          63.9642   83.7825   14.2409 C.3     1  UNL1        0.1642
     13 O          64.6257   83.9354   15.5784 O.3     1  UNL1       -0.3795
     14 C          63.5877   84.9983   13.4470 C.3     1  UNL1        0.1435
     15 O          63.8726   86.3669   13.9907 O.3     1  UNL1       -0.3816
     16 H          64.4701   81.4717   15.3243 H       1  UNL1        0.2104
     17 H          64.8005   83.0587   15.9548 H       1  UNL1        0.2105
     18 H          63.5687   87.0360   13.3576 H       1  UNL1        0.2105
     19 C          62.7329   80.8923   11.8158 C.3     1  UNL1        0.1396
     20 O          62.4022   79.7675   12.7514 O.3     1  UNL1       -0.3819
     21 H          63.1758   79.5660   13.3009 H       1  UNL1        0.2104
     22 C          62.1030   89.9690   11.8436 C.3     1  UNL1        0.0526
     23 C          65.9463   92.0796   12.8556 C.ar    1  UNL1        0.1387
     24 C          65.3150   92.2757   11.5092 C.ar    1  UNL1        0.0366
     25 C          64.0339   91.5722   11.1718 C.ar    1  UNL1       -0.0008
     26 C          63.3841   90.6725   12.1809 C.ar    1  UNL1       -0.0176
     27 C          64.0154   90.4765   13.5274 C.ar    1  UNL1       -0.0008
     28 C          65.2965   91.1800   13.8647 C.ar    1  UNL1        0.0366
     29 C          67.9978   92.3915   14.4189 C.3     1  UNL1        0.2525
     30 O          67.2274   92.7832   13.1930 O.3     1  UNL1       -0.4714
@<TRIPOS>BOND
     1    29    30    1
     2    30    23    1
     3    23    24   ar
     4    24    25   ar
     5    25    26   ar
     6    26    22    1
     7    22     1    1
     8     1     2   ar
     9     2     3   ar
    10     3     4   ar
    11     4     5   ar
    12     7     5    1
    13     7     8    1
    14     8     9    1
    15     9    19    1
    16    19    20    1
    17     9    10    1
    18    10    11    1
    19    10    12    1
    20    12    13    1
    21    12    14    1
    22    14    15    1
    23     5     6   ar
    24    26    27   ar
    25    27    28   ar
    26    28    23   ar
    27     6     1   ar
    28    14     7    1
    29    20    21    1
    30    11    16    1
    31    13    17    1
    32    15    18    1
@<TRIPOS>MOLECULE
*****
 30 32 0 0 0
SMALL
GASTEIGER

@<TRIPOS>ATOM
      1 C          64.1242   87.0283   15.7483 C.ar    1  UNL1       -0.0181
      2 C          63.2559   87.4736   16.8876 C.ar    1  UNL1       -0.0040
      3 C          62.7286   88.8774   16.9244 C.ar    1  UNL1       -0.0006
      4 C          63.0696   89.8359   15.8221 C.ar    1  UNL1       -0.0042
      5 C          63.9379   89.3906   14.6829 C.ar    1  UNL1       -0.0204
      6 C          64.4652   87.9867   14.6460 C.ar    1  UNL1       -0.0081
      7 C          64.2789   90.3490   13.5806 C.3     1  UNL1        0.0519
      8 C          63.4756   90.3518   12.3139 C.3     1  UNL1        0.0119
      9 C          63.8166   91.3102   11.2116 C.3     1  UNL1        0.0591
     10 C          64.9609   92.2659   11.3760 C.3     1  UNL1        0.1420
     11 O          65.3020   93.2244   10.2737 O.3     1  UNL1       -0.3818
     12 C          65.7643   92.2632   12.6428 C.3     1  UNL1        0.1642
     13 O          66.9087   93.2189   12.8072 O.3     1  UNL1       -0.3795
     14 C          65.4233   91.3048   13.7451 C.3     1  UNL1        0.1435
     15 O          66.2267   91.3020   15.0118 O.3     1  UNL1       -0.3816
     16 H          66.0611   93.7664   10.5399 H       1  UNL1        0.2104
     17 H          66.9926   93.7633   12.0088 H       1  UNL1        0.2105
     18 H          65.8770   90.6276   15.6150 H       1  UNL1        0.2105
     19 C          63.0132   91.3130    9.9449 C.3     1  UNL1        0.1396
     20 O          61.8427   90.3867    9.7971 O.3     1  UNL1       -0.3819
     21 H          62.1559   89.4687    9.7887 H       1  UNL1        0.2104
     22 C          64.6515   85.6245   15.7115 C.3     1  UNL1        0.0526
     23 C          62.7528   82.5783   12.9976 C.ar    1  UNL1        0.1387
     24 C          62.2520   82.7478   14.4013 C.ar    1  UNL1        0.0366
     25 C          62.8849   83.7632   15.3059 C.ar    1  UNL1       -0.0008
     26 C          64.0186   84.6091   14.8069 C.ar    1  UNL1       -0.0176
     27 C          64.5194   84.4396   13.4032 C.ar    1  UNL1       -0.0008
     28 C          63.8865   83.4242   12.4985 C.ar    1  UNL1        0.0366
     29 C          62.9450   80.8709   11.0488 C.3     1  UNL1        0.2525
     30 O          62.1199   81.5629   12.0930 O.3     1  UNL1       -0.4714
@<TRIPOS>BOND
     1    29    30    1
     2    30    23    1
     3    23    24   ar
     4    24    25   ar
     5    25    26   ar
     6    26    22    1
     7    22     1    1
     8     1     2   ar
     9     2     3   ar
    10     3     4   ar
    11     4     5   ar
    12     7     5    1
    13     7     8    1
    14     8     9    1
    15     9    19    1
    16    19    20    1
    17     9    10    1
    18    10    11    1
    19    10    12    1
    20    12    13    1
    21    12    14    1
    22    14    15    1
    23     5     6   ar
    24    26    27   ar
    25    27    28   ar
    26    28    23   ar
    27     6     1   ar
    28    14     7    1
    29    20    21    1
    30    11    16    1
    31    13    17    1
    32    15    18    1
@<TRIPOS>MOLECULE
*****
 30 32 0 0 0
SMALL
GASTEIGER

@<TRIPOS>ATOM
      1 C          62.5486   89.1876   11.7331 C.ar    1  UNL1       -0.0181
      2 C          61.8118   89.4769   10.4589 C.ar    1  UNL1       -0.0040
      3 C          61.3868   88.3493    9.5657 C.ar    1  UNL1       -0.0006
      4 C          61.6985   86.9323    9.9467 C.ar    1  UNL1       -0.0042
      5 C          62.4352   86.6430   11.2209 C.ar    1  UNL1       -0.0204
      6 C          62.8603   87.7707   12.1141 C.ar    1  UNL1       -0.0081
      7 C          62.7469   85.2261   11.6018 C.3     1  UNL1        0.0519
      8 C          62.4811   84.7493   12.9990 C.3     1  UNL1        0.0119
      9 C          62.7928   83.3324   13.3800 C.3     1  UNL1        0.0591
     10 C          63.3703   82.3922   12.3638 C.3     1  UNL1        0.1420
     11 O          63.6820   80.9753   12.7448 O.3     1  UNL1       -0.3818
     12 C          63.6361   82.8690   10.9666 C.3     1  UNL1        0.1642
     13 O          64.2135   81.9288    9.9505 O.3     1  UNL1       -0.3795
     14 C          63.3244   84.2859   10.5856 C.3     1  UNL1        0.1435
     15 O          63.5901   84.7627    9.1885 O.3     1  UNL1       -0.3816
     16 H          64.0460   80.5067   11.9774 H       1  UNL1        0.2104
     17 H          64.3541   81.0596   10.3574 H       1  UNL1        0.2105
     18 H          63.3344   85.6951    9.1109 H       1  UNL1        0.2105
     19 C          62.5270   82.8556   14.7772 C.3     1  UNL1        0.1396
     20 O          62.0399   81.4566   15.0124 O.3     1  UNL1       -0.3819
     21 H          61.1522   81.3556   14.6347 H       1  UNL1        0.2104
     22 C          62.9736   90.3152   12.6263 C.3     1  UNL1        0.0526
     23 C          66.2811   93.0815   11.3386 C.ar    1  UNL1        0.1387
     24 C          65.2268   92.6648   10.3563 C.ar    1  UNL1        0.0366
     25 C          64.1243   91.7427   10.7856 C.ar    1  UNL1       -0.0008
     26 C          64.0761   91.2373   12.1970 C.ar    1  UNL1       -0.0176
     27 C          65.1303   91.6541   13.1793 C.ar    1  UNL1       -0.0008
     28 C          66.2328   92.5762   12.7500 C.ar    1  UNL1        0.0366
     29 C          67.7964   94.0594    9.4684 C.3     1  UNL1        0.2525
     30 O          67.3836   94.0036   10.9093 O.3     1  UNL1       -0.4714
@<TRIPOS>BOND
     1    29    30    1
     2    30    23    1
     3    23    24   ar
     4    24    25   ar
     5    25    26   ar
     6    26    22    1
     7    22     1    1
     8     1     2   ar
     9     2     3   ar
    10     3     4   ar
    11     4     5   ar
    12     7     5    1
    13     7     8    1
    14     8     9    1
    15     9    19    1
    16    19    20    1
    17     9    10    1
    18    10    11    1
    19    10    12    1
    20    12    13    1
    21    12    14    1
    22    14    15    1
    23     5     6   ar
    24    26    27   ar
    25    27    28   ar
    26    28    23   ar
    27     6     1   ar
    28    14     7    1
    29    20    21    1
    30    11    16    1
    31    13    17    1
    32    15    18    1
