@<TRIPOS>MOLECULE
*****
 53 56 0 0 0
SMALL
GASTEIGER

@<TRIPOS>ATOM
      1 C          62.8472   89.9169   10.9807 C.3     1  UNL1        0.0760
      2 C          63.6836   90.2206   13.4217 C.2     1  UNL1        0.2404
      3 O          62.9361   91.5175   13.5165 O.2     1  UNL1       -0.2733
      4 N          63.6392   89.4202   12.1538 N.am    1  UNL1       -0.3043
      5 H          64.1299   88.5690   12.0915 H       1  UNL1        0.1494
      6 C          64.4757   89.7239   14.5947 C.3     1  UNL1        0.1522
      7 N          63.3150   86.4481   16.5110 N.am    1  UNL1       -0.2567
      8 C          62.3546   86.0464   17.5910 C.3     1  UNL1        0.1168
      9 C          63.4151   87.8851   16.0928 C.2     1  UNL1        0.3046
     10 O          62.5549   88.9205   16.7547 O.2     1  UNL1       -0.2526
     11 N          64.3755   88.2868   15.0129 N.am    1  UNL1       -0.2824
     12 H          64.9401   87.6072   14.5785 H       1  UNL1        0.1514
     13 C          64.1752   85.4127   15.8492 C.3     1  UNL1        0.1413
     14 C          62.5934   82.5786   13.7205 C.ar    1  UNL1        0.0875
     15 N          63.0897   83.1107   15.0322 N.ar    1  UNL1       -0.2453
     16 C          63.5903   84.5065   14.8067 C.ar    1  UNL1        0.0858
     17 C          63.4033   84.8372   13.3556 C.ar    1  UNL1        0.0530
     18 S          62.7872   83.6457   12.6843 S.2     1  UNL1       -0.0705
     19 C          60.7457   80.8138   14.1914 C.3     1  UNL1        0.0069
     20 C          62.0063   81.2183   13.4862 C.3     1  UNL1        0.0465
     21 C          62.6798   80.2624   12.5467 C.3     1  UNL1        0.0069
     22 C          65.3678   90.6642   15.3496 C.3     1  UNL1        0.0607
     23 C          64.7702   91.7081   16.2457 C.3     1  UNL1        0.1394
     24 O          63.3034   91.6779   16.5582 O.3     1  UNL1       -0.3819
     25 H          62.7968   91.8494   15.7490 H       1  UNL1        0.2104
     26 C          63.4375   90.9401   10.0563 C.3     1  UNL1        0.0216
     27 C          63.9851   92.2226   10.6087 C.3     1  UNL1        0.0217
     28 C          65.4651   92.4674   10.6101 C.3     1  UNL1        0.0792
     29 N          66.0550   93.5024    9.6987 N.am    1  UNL1       -0.2720
     30 C          67.4579   93.3435    9.1920 C.2     1  UNL1        0.4019
     31 O          68.2708   92.1497    9.5967 O.2     1  UNL1       -0.2264
     32 H          65.5214   94.2860    9.4331 H       1  UNL1        0.1527
     33 O          68.0478   94.3786    8.2806 O.3     1  UNL1       -0.4291
     34 C          67.5388   95.7890    8.3185 C.3     1  UNL1        0.2447
     35 C          66.5701   96.2084    9.3843 C.ar    1  UNL1        0.0714
     36 C          66.8983   96.4525   10.8274 C.ar    1  UNL1        0.1053
     37 N          65.6342   96.8523   11.5291 N.ar    1  UNL1       -0.2350
     38 C          64.5247   96.8552   10.5195 C.ar    1  UNL1        0.1343
     39 S          65.1032   96.4572    9.1940 S.2     1  UNL1       -0.0652
     40 C          66.3550   91.6770   11.5230 C.3     1  UNL1        0.0460
     41 C          66.9069   92.3104   12.7657 C.ar    1  UNL1       -0.0205
     42 C          68.0931   91.7028   13.4539 C.ar    1  UNL1       -0.0042
     43 C          68.6450   92.3362   14.6966 C.ar    1  UNL1       -0.0003
     44 C          68.0107   93.5772   15.2510 C.ar    1  UNL1       -0.0000
     45 C          66.8245   94.1849   14.5628 C.ar    1  UNL1       -0.0003
     46 C          66.2726   93.5515   13.3201 C.ar    1  UNL1       -0.0042
     47 C          61.4648   89.3904   10.7321 C.3     1  UNL1        0.0459
     48 C          61.2574   88.2449    9.7862 C.ar    1  UNL1       -0.0205
     49 C          60.0092   88.1733    8.9573 C.ar    1  UNL1       -0.0042
     50 C          59.8018   87.0278    8.0113 C.ar    1  UNL1       -0.0003
     51 C          60.8426   85.9539    7.8943 C.ar    1  UNL1       -0.0000
     52 C          62.0907   86.0255    8.7232 C.ar    1  UNL1       -0.0003
     53 C          62.2981   87.1710    9.6691 C.ar    1  UNL1       -0.0042
@<TRIPOS>BOND
     1    19    20    1
     2    20    21    1
     3    20    14    1
     4    14    15   ar
     5    15    16   ar
     6    16    13    1
     7    13     7    1
     8     7     8    1
     9     7     9   am
    10     9    10    2
    11     9    11   am
    12    11     6    1
    13     6    22    1
    14    22    23    1
    15    23    24    1
    16     6     2    1
    17     2     3    2
    18     2     4   am
    19     4     1    1
    20     1    26    1
    21    26    27    1
    22    28    27    1
    23    28    40    1
    24    40    41    1
    25    41    42   ar
    26    42    43   ar
    27    43    44   ar
    28    44    45   ar
    29    45    46   ar
    30    28    29    1
    31    29    30   am
    32    30    31    2
    33    30    33    1
    34    33    34    1
    35    34    35    1
    36    35    36   ar
    37    36    37   ar
    38    37    38   ar
    39    38    39   ar
    40     1    47    1
    41    47    48    1
    42    48    49   ar
    43    49    50   ar
    44    50    51   ar
    45    51    52   ar
    46    52    53   ar
    47    16    17   ar
    48    17    18   ar
    49    18    14   ar
    50    46    41   ar
    51    39    35   ar
    52    53    48   ar
    53    11    12    1
    54    24    25    1
    55     4     5    1
    56    29    32    1
@<TRIPOS>MOLECULE
*****
 53 56 0 0 0
SMALL
GASTEIGER

@<TRIPOS>ATOM
      1 C          62.0011   88.0512   10.6821 C.3     1  UNL1        0.0760
      2 C          60.3955   89.0527    8.9020 C.2     1  UNL1        0.2404
      3 O          60.0138   90.1425    9.8594 O.2     1  UNL1       -0.2733
      4 N          61.3892   88.0070    9.3134 N.am    1  UNL1       -0.3043
      5 H          61.6397   87.2918    8.6850 H       1  UNL1        0.1494
      6 C          59.7835   89.0086    7.5332 C.3     1  UNL1        0.1522
      7 N          59.9147   91.5966    4.5274 N.am    1  UNL1       -0.2567
      8 C          58.9746   92.4233    3.7010 C.3     1  UNL1        0.1168
      9 C          59.3791   90.7160    5.6171 C.2     1  UNL1        0.3046
     10 O          57.9034   90.6620    5.8806 O.2     1  UNL1       -0.2526
     11 N          60.3192   89.8892    6.4434 N.am    1  UNL1       -0.2824
     12 H          61.2877   89.9246    6.2705 H       1  UNL1        0.1514
     13 C          61.3904   91.6505    4.2639 C.3     1  UNL1        0.1413
     14 C          62.0078   92.9329    0.6528 C.ar    1  UNL1        0.0875
     15 N          61.1038   92.3561    1.7017 N.ar    1  UNL1       -0.2453
     16 C          61.9005   92.1938    2.9621 C.ar    1  UNL1        0.0858
     17 C          63.2970   92.6703    2.6923 C.ar    1  UNL1        0.0530
     18 S          63.3634   93.1270    1.2651 S.2     1  UNL1       -0.0705
     19 C          62.6687   93.7125   -1.7358 C.3     1  UNL1        0.0069
     20 C          61.6238   93.2583   -0.7602 C.3     1  UNL1        0.0465
     21 C          60.1948   93.1295   -1.1977 C.3     1  UNL1        0.0069
     22 C          58.6360   88.0838    7.2542 C.3     1  UNL1        0.0607
     23 C          58.6426   86.6910    7.8110 C.3     1  UNL1        0.1394
     24 O          59.7582   85.7501    7.4645 O.3     1  UNL1       -0.3819
     25 H          59.7264   85.5459    6.5168 H       1  UNL1        0.2104
     26 C          62.7741   89.2600   11.1195 C.3     1  UNL1        0.0216
     27 C          62.6629   89.7504   12.5326 C.3     1  UNL1        0.0217
     28 C          63.8396   90.4045   13.1943 C.3     1  UNL1        0.0792
     29 N          64.7972   91.2243   12.3812 N.am    1  UNL1       -0.2720
     30 C          65.5813   92.3255   13.0314 C.2     1  UNL1        0.4019
     31 O          65.4079   92.6068   14.4945 O.2     1  UNL1       -0.2264
     32 H          64.9110   91.0396   11.4209 H       1  UNL1        0.1527
     33 O          66.5389   93.1452   12.2183 O.3     1  UNL1       -0.4291
     34 C          66.2052   94.5667   11.8747 C.3     1  UNL1        0.2447
     35 C          66.5001   95.0956   10.5024 C.ar    1  UNL1        0.0714
     36 C          65.9948   96.3856    9.9273 C.ar    1  UNL1        0.1053
     37 N          66.5346   96.5148    8.5338 N.ar    1  UNL1       -0.2350
     38 C          67.3734   95.3046    8.2476 C.ar    1  UNL1        0.1343
     39 S          67.3521   94.4276    9.4643 S.2     1  UNL1       -0.0652
     40 C          64.0586   90.2389   14.6689 C.3     1  UNL1        0.0460
     41 C          63.8554   88.8987   15.3115 C.ar    1  UNL1       -0.0205
     42 C          63.0904   88.7917   16.5972 C.ar    1  UNL1       -0.0042
     43 C          62.8873   87.4517   17.2397 C.ar    1  UNL1       -0.0003
     44 C          63.4491   86.2186   16.5964 C.ar    1  UNL1       -0.0000
     45 C          64.2141   86.3256   15.3107 C.ar    1  UNL1       -0.0003
     46 C          64.4172   87.6657   14.6682 C.ar    1  UNL1       -0.0042
     47 C          61.8400   86.8865   11.6136 C.3     1  UNL1        0.0459
     48 C          62.5797   85.6083   11.3510 C.ar    1  UNL1       -0.0205
     49 C          62.8105   85.1514    9.9410 C.ar    1  UNL1       -0.0042
     50 C          63.5502   83.8732    9.6783 C.ar    1  UNL1       -0.0003
     51 C          64.0591   83.0518   10.8257 C.ar    1  UNL1       -0.0000
     52 C          63.8283   83.5086   12.2356 C.ar    1  UNL1       -0.0003
     53 C          63.0886   84.7869   12.4983 C.ar    1  UNL1       -0.0042
@<TRIPOS>BOND
     1    19    20    1
     2    20    21    1
     3    20    14    1
     4    14    15   ar
     5    15    16   ar
     6    16    13    1
     7    13     7    1
     8     7     8    1
     9     7     9   am
    10     9    10    2
    11     9    11   am
    12    11     6    1
    13     6    22    1
    14    22    23    1
    15    23    24    1
    16     6     2    1
    17     2     3    2
    18     2     4   am
    19     4     1    1
    20     1    26    1
    21    26    27    1
    22    28    27    1
    23    28    40    1
    24    40    41    1
    25    41    42   ar
    26    42    43   ar
    27    43    44   ar
    28    44    45   ar
    29    45    46   ar
    30    28    29    1
    31    29    30   am
    32    30    31    2
    33    30    33    1
    34    33    34    1
    35    34    35    1
    36    35    36   ar
    37    36    37   ar
    38    37    38   ar
    39    38    39   ar
    40     1    47    1
    41    47    48    1
    42    48    49   ar
    43    49    50   ar
    44    50    51   ar
    45    51    52   ar
    46    52    53   ar
    47    16    17   ar
    48    17    18   ar
    49    18    14   ar
    50    46    41   ar
    51    39    35   ar
    52    53    48   ar
    53    11    12    1
    54    24    25    1
    55     4     5    1
    56    29    32    1
@<TRIPOS>MOLECULE
*****
 53 56 0 0 0
SMALL
GASTEIGER

@<TRIPOS>ATOM
      1 C          60.8912   88.9882    9.4104 C.3     1  UNL1        0.0760
      2 C          59.6963   89.2744    7.1211 C.2     1  UNL1        0.2404
      3 O          59.7267   87.7883    6.9195 O.2     1  UNL1       -0.2733
      4 N          60.2786   89.8743    8.3666 N.am    1  UNL1       -0.3043
      5 H          60.2586   90.8497    8.4990 H       1  UNL1        0.1494
      6 C          59.0837   90.1605    6.0774 C.3     1  UNL1        0.1522
      7 N          60.4979   92.7100    3.3847 N.am    1  UNL1       -0.2567
      8 C          60.1972   94.0799    2.8526 C.3     1  UNL1        0.1168
      9 C          59.6405   92.1202    4.4650 C.2     1  UNL1        0.3046
     10 O          58.4825   92.9003    5.0132 O.2     1  UNL1       -0.2526
     11 N          59.9411   90.7503    4.9970 N.am    1  UNL1       -0.2824
     12 H          60.7012   90.2384    4.6372 H       1  UNL1        0.1514
     13 C          61.6558   91.9300    2.8365 C.3     1  UNL1        0.1413
     14 C          63.5429   93.5243   -0.1573 C.ar    1  UNL1        0.0875
     15 N          62.3197   92.8845    0.4295 N.ar    1  UNL1       -0.2453
     16 C          62.6040   92.5749    1.8694 C.ar    1  UNL1        0.0858
     17 C          64.0029   93.0234    2.1725 C.ar    1  UNL1        0.0530
     18 S          64.5832   93.6102    0.9200 S.2     1  UNL1       -0.0705
     19 C          63.0942   93.2070   -2.6966 C.3     1  UNL1        0.0069
     20 C          63.6985   93.9956   -1.5728 C.3     1  UNL1        0.0465
     21 C          64.4584   95.2555   -1.8646 C.3     1  UNL1        0.0069
     22 C          57.6138   90.4569    6.1139 C.3     1  UNL1        0.0607
     23 C          56.8846   90.7923    4.8467 C.3     1  UNL1        0.1394
     24 O          55.5808   91.5317    4.9049 O.3     1  UNL1       -0.3819
     25 H          54.9124   90.9752    5.3344 H       1  UNL1        0.2104
     26 C          61.9879   89.5121   10.2893 C.3     1  UNL1        0.0216
     27 C          61.8002   89.5566   11.7768 C.3     1  UNL1        0.0217
     28 C          62.9952   89.5963   12.6827 C.3     1  UNL1        0.0792
     29 N          63.7038   88.3250   13.0456 N.am    1  UNL1       -0.2720
     30 C          64.0014   88.0163   14.4831 C.2     1  UNL1        0.4019
     31 O          63.5904   88.9789   15.5575 O.2     1  UNL1       -0.2264
     32 H          63.9735   87.6932   12.3404 H       1  UNL1        0.1527
     33 O          64.7100   86.7450   14.8460 O.3     1  UNL1       -0.4291
     34 C          63.9912   85.6807   15.6209 C.3     1  UNL1        0.2447
     35 C          63.6773   84.3644   14.9737 C.ar    1  UNL1        0.0714
     36 C          64.5749   83.6026   14.0442 C.ar    1  UNL1        0.1053
     37 N          63.8631   82.3462   13.6384 N.ar    1  UNL1       -0.2350
     38 C          62.5255   82.3315   14.3170 C.ar    1  UNL1        0.1343
     39 S          62.4107   83.5788   15.1423 S.2     1  UNL1       -0.0652
     40 C          63.4815   90.9073   13.2257 C.3     1  UNL1        0.0460
     41 C          64.6425   91.6027   12.5786 C.ar    1  UNL1       -0.0205
     42 C          64.5731   91.9894   11.1310 C.ar    1  UNL1       -0.0042
     43 C          65.7340   92.6848   10.4840 C.ar    1  UNL1       -0.0003
     44 C          66.9642   92.9937   11.2847 C.ar    1  UNL1       -0.0000
     45 C          67.0336   92.6070   12.7323 C.ar    1  UNL1       -0.0003
     46 C          65.8727   91.9116   13.3793 C.ar    1  UNL1       -0.0042
     47 C          60.4070   87.5780    9.5751 C.3     1  UNL1        0.0459
     48 C          61.3927   86.4652    9.7751 C.ar    1  UNL1       -0.0205
     49 C          62.2046   85.9653    8.6171 C.ar    1  UNL1       -0.0042
     50 C          63.1903   84.8525    8.8170 C.ar    1  UNL1       -0.0003
     51 C          63.3640   84.2394   10.1750 C.ar    1  UNL1       -0.0000
     52 C          62.5521   84.7393   11.3330 C.ar    1  UNL1       -0.0003
     53 C          61.5664   85.8521   11.1330 C.ar    1  UNL1       -0.0042
@<TRIPOS>BOND
     1    19    20    1
     2    20    21    1
     3    20    14    1
     4    14    15   ar
     5    15    16   ar
     6    16    13    1
     7    13     7    1
     8     7     8    1
     9     7     9   am
    10     9    10    2
    11     9    11   am
    12    11     6    1
    13     6    22    1
    14    22    23    1
    15    23    24    1
    16     6     2    1
    17     2     3    2
    18     2     4   am
    19     4     1    1
    20     1    26    1
    21    26    27    1
    22    28    27    1
    23    28    40    1
    24    40    41    1
    25    41    42   ar
    26    42    43   ar
    27    43    44   ar
    28    44    45   ar
    29    45    46   ar
    30    28    29    1
    31    29    30   am
    32    30    31    2
    33    30    33    1
    34    33    34    1
    35    34    35    1
    36    35    36   ar
    37    36    37   ar
    38    37    38   ar
    39    38    39   ar
    40     1    47    1
    41    47    48    1
    42    48    49   ar
    43    49    50   ar
    44    50    51   ar
    45    51    52   ar
    46    52    53   ar
    47    16    17   ar
    48    17    18   ar
    49    18    14   ar
    50    46    41   ar
    51    39    35   ar
    52    53    48   ar
    53    11    12    1
    54    24    25    1
    55     4     5    1
    56    29    32    1
@<TRIPOS>MOLECULE
*****
 53 56 0 0 0
SMALL
GASTEIGER

@<TRIPOS>ATOM
      1 C          63.5838   84.1551   11.3408 C.3     1  UNL1        0.0760
      2 C          64.1970   85.2105   13.6343 C.2     1  UNL1        0.2404
      3 O          65.4011   84.3203   13.7220 O.2     1  UNL1       -0.2733
      4 N          63.2883   85.1279   12.4437 N.am    1  UNL1       -0.3043
      5 H          62.4980   85.7121   12.3861 H       1  UNL1        0.1494
      6 C          63.9015   86.1833   14.7372 C.3     1  UNL1        0.1522
      7 N          63.5860   90.1044   15.2621 N.am    1  UNL1       -0.2567
      8 C          63.4524   91.0911   16.3840 C.3     1  UNL1        0.1168
      9 C          63.6769   88.6372   15.5605 C.2     1  UNL1        0.3046
     10 O          63.6343   88.1567   16.9809 O.2     1  UNL1       -0.2526
     11 N          63.8105   87.6505   14.4387 N.am    1  UNL1       -0.2824
     12 H          63.8386   87.9659   13.5065 H       1  UNL1        0.1514
     13 C          63.6286   90.5849   13.8418 C.3     1  UNL1        0.1413
     14 C          66.3734   92.5012   11.8771 C.ar    1  UNL1        0.0875
     15 N          65.0022   91.8990   11.9625 N.ar    1  UNL1       -0.2453
     16 C          64.8459   91.2938   13.3261 C.ar    1  UNL1        0.0858
     17 C          66.1204   91.5220   14.0834 C.ar    1  UNL1        0.0530
     18 S          67.0645   92.2682   13.1880 S.2     1  UNL1       -0.0705
     19 C          66.4917   94.5977   10.3472 C.3     1  UNL1        0.0069
     20 C          66.9519   93.2117   10.6895 C.3     1  UNL1        0.0465
     21 C          67.9906   92.5361    9.8441 C.3     1  UNL1        0.0069
     22 C          63.6970   85.6889   16.1385 C.3     1  UNL1        0.0607
     23 C          62.3435   85.2126   16.5757 C.3     1  UNL1        0.1394
     24 O          61.2748   86.2062   16.9229 O.3     1  UNL1       -0.3819
     25 H          61.5372   86.6995   17.7158 H       1  UNL1        0.2104
     26 C          63.4682   84.5868    9.9089 C.3     1  UNL1        0.0216
     27 C          62.1166   84.8317    9.3063 C.3     1  UNL1        0.0217
     28 C          61.4677   86.1773    9.4416 C.3     1  UNL1        0.0792
     29 N          61.1913   87.0029    8.2201 N.am    1  UNL1       -0.2720
     30 C          59.7762   87.2793    7.8061 C.2     1  UNL1        0.4019
     31 O          58.6377   86.7302    8.6136 O.2     1  UNL1       -0.2264
     32 H          61.9386   87.3633    7.6901 H       1  UNL1        0.1527
     33 O          59.4998   88.1049    6.5847 O.3     1  UNL1       -0.4291
     34 C          58.7096   89.3746    6.7006 C.3     1  UNL1        0.2447
     35 C          58.9170   90.4803    5.7084 C.ar    1  UNL1        0.0714
     36 C          57.8442   91.3428    5.1125 C.ar    1  UNL1        0.1053
     37 N          58.4976   92.3132    4.1737 N.ar    1  UNL1       -0.2350
     38 C          59.9744   92.0504    4.1895 C.ar    1  UNL1        0.1343
     39 S          60.2335   90.9176    5.1380 S.2     1  UNL1       -0.0652
     40 C          61.0951   86.6972   10.7983 C.3     1  UNL1        0.0460
     41 C          60.8643   88.1654   11.0015 C.ar    1  UNL1       -0.0205
     42 C          61.9433   89.1490   10.6575 C.ar    1  UNL1       -0.0042
     43 C          61.7125   90.6171   10.8607 C.ar    1  UNL1       -0.0003
     44 C          60.4026   91.1016   11.4078 C.ar    1  UNL1       -0.0000
     45 C          59.3236   90.1181   11.7518 C.ar    1  UNL1       -0.0003
     46 C          59.5544   88.6500   11.5487 C.ar    1  UNL1       -0.0042
     47 C          63.9949   82.7505   11.6698 C.3     1  UNL1        0.0459
     48 C          63.0911   81.8767   12.4880 C.ar    1  UNL1       -0.0205
     49 C          63.0462   80.3988   12.2350 C.ar    1  UNL1       -0.0042
     50 C          62.1423   79.5249   13.0532 C.ar    1  UNL1       -0.0003
     51 C          61.2834   80.1290   14.1244 C.ar    1  UNL1       -0.0000
     52 C          61.3283   81.6068   14.3774 C.ar    1  UNL1       -0.0003
     53 C          62.2322   82.4806   13.5592 C.ar    1  UNL1       -0.0042
@<TRIPOS>BOND
     1    19    20    1
     2    20    21    1
     3    20    14    1
     4    14    15   ar
     5    15    16   ar
     6    16    13    1
     7    13     7    1
     8     7     8    1
     9     7     9   am
    10     9    10    2
    11     9    11   am
    12    11     6    1
    13     6    22    1
    14    22    23    1
    15    23    24    1
    16     6     2    1
    17     2     3    2
    18     2     4   am
    19     4     1    1
    20     1    26    1
    21    26    27    1
    22    28    27    1
    23    28    40    1
    24    40    41    1
    25    41    42   ar
    26    42    43   ar
    27    43    44   ar
    28    44    45   ar
    29    45    46   ar
    30    28    29    1
    31    29    30   am
    32    30    31    2
    33    30    33    1
    34    33    34    1
    35    34    35    1
    36    35    36   ar
    37    36    37   ar
    38    37    38   ar
    39    38    39   ar
    40     1    47    1
    41    47    48    1
    42    48    49   ar
    43    49    50   ar
    44    50    51   ar
    45    51    52   ar
    46    52    53   ar
    47    16    17   ar
    48    17    18   ar
    49    18    14   ar
    50    46    41   ar
    51    39    35   ar
    52    53    48   ar
    53    11    12    1
    54    24    25    1
    55     4     5    1
    56    29    32    1
@<TRIPOS>MOLECULE
*****
 53 56 0 0 0
SMALL
GASTEIGER

@<TRIPOS>ATOM
      1 C          63.1072   85.7542   12.6218 C.3     1  UNL1        0.0760
      2 C          64.1425   87.3992   14.3459 C.2     1  UNL1        0.2404
      3 O          64.9359   86.2747   14.9424 O.2     1  UNL1       -0.2733
      4 N          63.2281   87.1390   13.1856 N.am    1  UNL1       -0.3043
      5 H          62.7073   87.8770   12.7941 H       1  UNL1        0.1494
      6 C          64.2633   88.7839   14.9097 C.3     1  UNL1        0.1522
      7 N          66.4033   92.0777   14.3426 N.am    1  UNL1       -0.2567
      8 C          66.5217   93.4637   14.9039 C.3     1  UNL1        0.1168
      9 C          65.3925   91.1238   14.9068 C.2     1  UNL1        0.3046
     10 O          64.5000   91.5559   16.0324 O.2     1  UNL1       -0.2526
     11 N          65.2742   89.7379   14.3454 N.am    1  UNL1       -0.2824
     12 H          65.8599   89.4543   13.6067 H       1  UNL1        0.1514
     13 C          67.2957   91.6457   13.2171 C.3     1  UNL1        0.1413
     14 C          67.0005   94.1954   10.3054 C.ar    1  UNL1        0.0875
     15 N          66.7571   93.8023   11.7324 N.ar    1  UNL1       -0.2453
     16 C          67.3199   92.4270   11.9368 C.ar    1  UNL1        0.0858
     17 C          67.9112   91.9701   10.6361 C.ar    1  UNL1        0.0530
     18 S          67.7138   93.0630    9.6279 S.2     1  UNL1       -0.0705
     19 C          67.3312   95.9892    8.4553 C.3     1  UNL1        0.0069
     20 C          66.6009   95.4930    9.6679 C.3     1  UNL1        0.0465
     21 C          65.4709   96.2945   10.2430 C.3     1  UNL1        0.0069
     22 C          63.3734   89.2148   16.0376 C.3     1  UNL1        0.0607
     23 C          63.1043   88.2803   17.1797 C.3     1  UNL1        0.1394
     24 O          62.2022   87.0979   16.9848 O.3     1  UNL1       -0.3819
     25 H          61.2990   87.4056   16.8106 H       1  UNL1        0.2104
     26 C          62.1829   85.4913   11.4701 C.3     1  UNL1        0.0216
     27 C          62.3314   86.2699   10.1966 C.3     1  UNL1        0.0217
     28 C          61.3433   87.3459    9.8558 C.3     1  UNL1        0.0792
     29 N          60.6646   87.3446    8.5181 N.am    1  UNL1       -0.2720
     30 C          59.8395   88.5235    8.0946 C.2     1  UNL1        0.4019
     31 O          59.6931   89.7037    9.0087 O.2     1  UNL1       -0.2264
     32 H          60.7607   86.5700    7.9182 H       1  UNL1        0.1527
     33 O          59.1609   88.5222    6.7569 O.3     1  UNL1       -0.4291
     34 C          58.2841   89.6726    6.3596 C.3     1  UNL1        0.2447
     35 C          58.8200   90.7495    5.4635 C.ar    1  UNL1        0.0714
     36 C          58.0207   91.8517    4.8341 C.ar    1  UNL1        0.1053
     37 N          58.9560   92.6967    4.0211 N.ar    1  UNL1       -0.2350
     38 C          60.3335   92.1168    4.1480 C.ar    1  UNL1        0.1343
     39 S          60.2495   90.9134    5.0394 S.2     1  UNL1       -0.0652
     40 C          61.0340   88.4231   10.8527 C.3     1  UNL1        0.0460
     41 C          61.9770   89.5765   11.0275 C.ar    1  UNL1       -0.0205
     42 C          62.7136   90.1291    9.8435 C.ar    1  UNL1       -0.0042
     43 C          63.6566   91.2824   10.0183 C.ar    1  UNL1       -0.0003
     44 C          63.8629   91.8832   11.3772 C.ar    1  UNL1       -0.0000
     45 C          63.1263   91.3306   12.5612 C.ar    1  UNL1       -0.0003
     46 C          62.1834   90.1772   12.3864 C.ar    1  UNL1       -0.0042
     47 C          63.9107   84.6323   13.2099 C.3     1  UNL1        0.0459
     48 C          63.3425   83.2447   13.2520 C.ar    1  UNL1       -0.0205
     49 C          62.4082   82.8501   14.3573 C.ar    1  UNL1       -0.0042
     50 C          61.8400   81.4625   14.3994 C.ar    1  UNL1       -0.0003
     51 C          62.2061   80.4695   13.3364 C.ar    1  UNL1       -0.0000
     52 C          63.1403   80.8642   12.2312 C.ar    1  UNL1       -0.0003
     53 C          63.7085   82.2517   12.1890 C.ar    1  UNL1       -0.0042
@<TRIPOS>BOND
     1    19    20    1
     2    20    21    1
     3    20    14    1
     4    14    15   ar
     5    15    16   ar
     6    16    13    1
     7    13     7    1
     8     7     8    1
     9     7     9   am
    10     9    10    2
    11     9    11   am
    12    11     6    1
    13     6    22    1
    14    22    23    1
    15    23    24    1
    16     6     2    1
    17     2     3    2
    18     2     4   am
    19     4     1    1
    20     1    26    1
    21    26    27    1
    22    28    27    1
    23    28    40    1
    24    40    41    1
    25    41    42   ar
    26    42    43   ar
    27    43    44   ar
    28    44    45   ar
    29    45    46   ar
    30    28    29    1
    31    29    30   am
    32    30    31    2
    33    30    33    1
    34    33    34    1
    35    34    35    1
    36    35    36   ar
    37    36    37   ar
    38    37    38   ar
    39    38    39   ar
    40     1    47    1
    41    47    48    1
    42    48    49   ar
    43    49    50   ar
    44    50    51   ar
    45    51    52   ar
    46    52    53   ar
    47    16    17   ar
    48    17    18   ar
    49    18    14   ar
    50    46    41   ar
    51    39    35   ar
    52    53    48   ar
    53    11    12    1
    54    24    25    1
    55     4     5    1
    56    29    32    1
@<TRIPOS>MOLECULE
*****
 53 56 0 0 0
SMALL
GASTEIGER

@<TRIPOS>ATOM
      1 C          62.4648   91.0309   11.2383 C.3     1  UNL1        0.0760
      2 C          63.5496   89.4013   12.9465 C.2     1  UNL1        0.2404
      3 O          63.1891   88.2403   12.0679 O.2     1  UNL1       -0.2733
      4 N          63.1875   90.7967   12.5317 N.am    1  UNL1       -0.3043
      5 H          63.4241   91.5587   13.1084 H       1  UNL1        0.1494
      6 C          64.2723   89.1672   14.2399 C.3     1  UNL1        0.1522
      7 N          63.3091   86.2167   16.7131 N.am    1  UNL1       -0.2567
      8 C          62.4193   85.9735   17.8960 C.3     1  UNL1        0.1168
      9 C          63.3458   87.5703   16.0680 C.2     1  UNL1        0.3046
     10 O          62.4927   88.6808   16.6056 O.2     1  UNL1       -0.2526
     11 N          64.2356   87.8134   14.8851 N.am    1  UNL1       -0.2824
     12 H          64.7955   87.0846   14.5322 H       1  UNL1        0.1514
     13 C          64.1621   85.1062   16.1755 C.3     1  UNL1        0.1413
     14 C          63.4145   83.7751   12.6069 C.ar    1  UNL1        0.0875
     15 N          64.0068   84.8035   13.5242 N.ar    1  UNL1       -0.2453
     16 C          63.7437   84.3717   14.9363 C.ar    1  UNL1        0.0858
     17 C          62.9887   83.0763   14.8918 C.ar    1  UNL1        0.0530
     18 S          62.7852   82.7075   13.4522 S.2     1  UNL1       -0.0705
     19 C          62.7303   84.8985   10.3664 C.3     1  UNL1        0.0069
     20 C          63.4458   83.8083   11.1076 C.3     1  UNL1        0.0465
     21 C          64.1927   82.7512   10.3494 C.3     1  UNL1        0.0069
     22 C          65.0317   90.2866   14.8881 C.3     1  UNL1        0.0607
     23 C          64.2912   91.4190   15.5355 C.3     1  UNL1        0.1394
     24 O          63.4966   91.1787   16.7848 O.3     1  UNL1       -0.3819
     25 H          62.7516   90.5902   16.5860 H       1  UNL1        0.2104
     26 C          63.1935   91.6229   10.0685 C.3     1  UNL1        0.0216
     27 C          64.6931   91.6520   10.0558 C.3     1  UNL1        0.0217
     28 C          65.4344   92.5363   11.0142 C.3     1  UNL1        0.0792
     29 N          66.4706   91.9506   11.9269 N.am    1  UNL1       -0.2720
     30 C          67.9050   91.8900   11.4921 C.2     1  UNL1        0.4019
     31 O          68.3030   92.4151   10.1446 O.2     1  UNL1       -0.2264
     32 H          66.2094   91.6059   12.8114 H       1  UNL1        0.1527
     33 O          68.9413   91.3043   12.4048 O.3     1  UNL1       -0.4291
     34 C          69.4462   92.0977   13.5733 C.3     1  UNL1        0.2447
     35 C          68.5157   92.4586   14.6931 C.ar    1  UNL1        0.0714
     36 C          68.5707   91.9220   16.0928 C.ar    1  UNL1        0.1053
     37 N          67.4559   92.5512   16.8746 N.ar    1  UNL1       -0.2350
     38 C          66.7118   93.4766   15.9581 C.ar    1  UNL1        0.1343
     39 S          67.3668   93.4193   14.6099 S.2     1  UNL1       -0.0652
     40 C          65.1393   94.0062   11.0600 C.3     1  UNL1        0.0460
     41 C          65.7081   94.9183   10.0136 C.ar    1  UNL1       -0.0205
     42 C          67.1523   94.8049    9.6246 C.ar    1  UNL1       -0.0042
     43 C          67.7210   95.7169    8.5784 C.ar    1  UNL1       -0.0003
     44 C          66.8455   96.7424    7.9211 C.ar    1  UNL1       -0.0000
     45 C          65.4013   96.8558    8.3101 C.ar    1  UNL1       -0.0003
     46 C          64.8326   95.9437    9.3564 C.ar    1  UNL1       -0.0042
     47 C          61.0133   90.6730   11.1147 C.3     1  UNL1        0.0459
     48 C          60.5855   89.5918   10.1671 C.ar    1  UNL1       -0.0205
     49 C          60.5005   88.1706   10.6397 C.ar    1  UNL1       -0.0042
     50 C          60.0728   87.0894    9.6921 C.ar    1  UNL1       -0.0003
     51 C          59.7299   87.4293    8.2719 C.ar    1  UNL1       -0.0000
     52 C          59.8149   88.8504    7.7993 C.ar    1  UNL1       -0.0003
     53 C          60.2427   89.9316    8.7469 C.ar    1  UNL1       -0.0042
@<TRIPOS>BOND
     1    19    20    1
     2    20    21    1
     3    20    14    1
     4    14    15   ar
     5    15    16   ar
     6    16    13    1
     7    13     7    1
     8     7     8    1
     9     7     9   am
    10     9    10    2
    11     9    11   am
    12    11     6    1
    13     6    22    1
    14    22    23    1
    15    23    24    1
    16     6     2    1
    17     2     3    2
    18     2     4   am
    19     4     1    1
    20     1    26    1
    21    26    27    1
    22    28    27    1
    23    28    40    1
    24    40    41    1
    25    41    42   ar
    26    42    43   ar
    27    43    44   ar
    28    44    45   ar
    29    45    46   ar
    30    28    29    1
    31    29    30   am
    32    30    31    2
    33    30    33    1
    34    33    34    1
    35    34    35    1
    36    35    36   ar
    37    36    37   ar
    38    37    38   ar
    39    38    39   ar
    40     1    47    1
    41    47    48    1
    42    48    49   ar
    43    49    50   ar
    44    50    51   ar
    45    51    52   ar
    46    52    53   ar
    47    16    17   ar
    48    17    18   ar
    49    18    14   ar
    50    46    41   ar
    51    39    35   ar
    52    53    48   ar
    53    11    12    1
    54    24    25    1
    55     4     5    1
    56    29    32    1
@<TRIPOS>MOLECULE
*****
 53 56 0 0 0
SMALL
GASTEIGER

@<TRIPOS>ATOM
      1 C          62.2215   88.0398   10.7725 C.3     1  UNL1        0.0760
      2 C          60.4374   88.8003    9.0436 C.2     1  UNL1        0.2404
      3 O          59.9156   89.8074   10.0251 O.2     1  UNL1       -0.2733
      4 N          61.5904   87.9164    9.4173 N.am    1  UNL1       -0.3043
      5 H          61.9329   87.2554    8.7731 H       1  UNL1        0.1494
      6 C          59.8063   88.6770    7.6884 C.3     1  UNL1        0.1522
      7 N          58.5031   91.4634    5.1810 N.am    1  UNL1       -0.2567
      8 C          57.2199   91.8999    4.5383 C.3     1  UNL1        0.1168
      9 C          58.5132   90.2885    6.1133 C.2     1  UNL1        0.3046
     10 O          57.2401   89.5499    6.4030 O.2     1  UNL1       -0.2526
     11 N          59.7963   89.8520    6.7560 N.am    1  UNL1       -0.2824
     12 H          60.6318   90.3368    6.5659 H       1  UNL1        0.1514
     13 C          59.7761   92.2020    4.8914 C.3     1  UNL1        0.1413
     14 C          60.1373   92.9658    1.1030 C.ar    1  UNL1        0.0875
     15 N          59.2972   92.8345    2.3387 N.ar    1  UNL1       -0.2453
     16 C          60.1980   92.4414    3.4719 C.ar    1  UNL1        0.0858
     17 C          61.5948   92.3299    2.9365 C.ar    1  UNL1        0.0530
     18 S          61.5573   92.6540    1.4724 S.2     1  UNL1       -0.0705
     19 C          58.1766   93.5428   -0.5011 C.3     1  UNL1        0.0069
     20 C          59.6440   93.3428   -0.2625 C.3     1  UNL1        0.0465
     21 C          60.6180   93.5199   -1.3894 C.3     1  UNL1        0.0069
     22 C          59.1853   87.3787    7.2656 C.3     1  UNL1        0.0607
     23 C          59.7374   86.0814    7.7775 C.3     1  UNL1        0.1394
     24 O          60.4333   85.1402    6.8395 O.3     1  UNL1       -0.3819
     25 H          59.7970   84.8011    6.1907 H       1  UNL1        0.2104
     26 C          62.9768   89.2831   11.1377 C.3     1  UNL1        0.0216
     27 C          62.6168   90.0414   12.3808 C.3     1  UNL1        0.0217
     28 C          63.6646   90.3252   13.4161 C.3     1  UNL1        0.0792
     29 N          64.9946   90.8828   13.0038 N.am    1  UNL1       -0.2720
     30 C          65.0675   91.9454   11.9475 C.2     1  UNL1        0.4019
     31 O          63.8104   92.4502   11.3035 O.2     1  UNL1       -0.2264
     32 H          65.8197   90.5515   13.4265 H       1  UNL1        0.1527
     33 O          66.3976   92.5030   11.5352 O.3     1  UNL1       -0.4291
     34 C          67.6222   92.1994   12.3464 C.3     1  UNL1        0.2447
     35 C          67.6398   92.4944   13.8170 C.ar    1  UNL1        0.0714
     36 C          66.9350   93.6307   14.4969 C.ar    1  UNL1        0.1053
     37 N          67.2248   93.5435   15.9660 N.ar    1  UNL1       -0.2350
     38 C          68.1087   92.3532   16.1942 C.ar    1  UNL1        0.1343
     39 S          68.3652   91.7049   14.8661 S.2     1  UNL1       -0.0652
     40 C          63.3822   90.0514   14.8636 C.3     1  UNL1        0.0460
     41 C          63.5223   88.6595   15.4049 C.ar    1  UNL1       -0.0205
     42 C          64.3141   87.6360   14.6464 C.ar    1  UNL1       -0.0042
     43 C          64.4542   86.2441   15.1877 C.ar    1  UNL1       -0.0003
     44 C          63.8023   85.8757   16.4875 C.ar    1  UNL1       -0.0000
     45 C          63.0105   86.8992   17.2460 C.ar    1  UNL1       -0.0003
     46 C          62.8704   88.2911   16.7047 C.ar    1  UNL1       -0.0042
     47 C          62.0971   86.9196   11.7624 C.3     1  UNL1        0.0459
     48 C          62.6800   85.5735   11.4489 C.ar    1  UNL1       -0.0205
     49 C          63.0225   84.6270   12.5612 C.ar    1  UNL1       -0.0042
     50 C          63.6053   83.2809   12.2477 C.ar    1  UNL1       -0.0003
     51 C          63.8458   82.8813   10.8219 C.ar    1  UNL1       -0.0000
     52 C          63.5033   83.8278    9.7098 C.ar    1  UNL1       -0.0003
     53 C          62.9204   85.1739   10.0233 C.ar    1  UNL1       -0.0042
@<TRIPOS>BOND
     1    19    20    1
     2    20    21    1
     3    20    14    1
     4    14    15   ar
     5    15    16   ar
     6    16    13    1
     7    13     7    1
     8     7     8    1
     9     7     9   am
    10     9    10    2
    11     9    11   am
    12    11     6    1
    13     6    22    1
    14    22    23    1
    15    23    24    1
    16     6     2    1
    17     2     3    2
    18     2     4   am
    19     4     1    1
    20     1    26    1
    21    26    27    1
    22    28    27    1
    23    28    40    1
    24    40    41    1
    25    41    42   ar
    26    42    43   ar
    27    43    44   ar
    28    44    45   ar
    29    45    46   ar
    30    28    29    1
    31    29    30   am
    32    30    31    2
    33    30    33    1
    34    33    34    1
    35    34    35    1
    36    35    36   ar
    37    36    37   ar
    38    37    38   ar
    39    38    39   ar
    40     1    47    1
    41    47    48    1
    42    48    49   ar
    43    49    50   ar
    44    50    51   ar
    45    51    52   ar
    46    52    53   ar
    47    16    17   ar
    48    17    18   ar
    49    18    14   ar
    50    46    41   ar
    51    39    35   ar
    52    53    48   ar
    53    11    12    1
    54    24    25    1
    55     4     5    1
    56    29    32    1
@<TRIPOS>MOLECULE
*****
 53 56 0 0 0
SMALL
GASTEIGER

@<TRIPOS>ATOM
      1 C          61.0948   89.0772    9.5330 C.3     1  UNL1        0.0760
      2 C          59.8120   89.3205    7.2868 C.2     1  UNL1        0.2404
      3 O          59.7582   87.8273    7.1558 O.2     1  UNL1       -0.2733
      4 N          60.4803   89.9455    8.4755 N.am    1  UNL1       -0.3043
      5 H          60.5156   90.9256    8.5615 H       1  UNL1        0.1494
      6 C          59.1975   90.1889    6.2293 C.3     1  UNL1        0.1522
      7 N          60.5336   92.6691    3.4340 N.am    1  UNL1       -0.2567
      8 C          60.1519   93.9732    2.7989 C.3     1  UNL1        0.1168
      9 C          59.6747   92.0810    4.5141 C.2     1  UNL1        0.3046
     10 O          58.4341   92.7972    4.9590 O.2     1  UNL1       -0.2526
     11 N          60.0565   90.7769    5.1492 N.am    1  UNL1       -0.2824
     12 H          60.8707   90.3068    4.8572 H       1  UNL1        0.1514
     13 C          61.7742   91.9529    2.9891 C.3     1  UNL1        0.1413
     14 C          63.3863   93.4922   -0.1885 C.ar    1  UNL1        0.0875
     15 N          62.1973   92.9427    0.5424 N.ar    1  UNL1       -0.2453
     16 C          62.6414   92.5484    1.9198 C.ar    1  UNL1        0.0858
     17 C          64.1049   92.8543    2.0402 C.ar    1  UNL1        0.0530
     18 S          64.5654   93.4376    0.7372 S.2     1  UNL1       -0.0705
     19 C          64.3923   95.0477   -2.0102 C.3     1  UNL1        0.0069
     20 C          63.3948   94.0061   -1.5977 C.3     1  UNL1        0.0465
     21 C          62.4059   93.4784   -2.5945 C.3     1  UNL1        0.0069
     22 C          57.7241   90.4692    6.2518 C.3     1  UNL1        0.0607
     23 C          56.9691   90.6176    4.9642 C.3     1  UNL1        0.1394
     24 O          55.6806   91.3850    4.9344 O.3     1  UNL1       -0.3819
     25 H          55.0135   90.9172    5.4608 H       1  UNL1        0.2104
     26 C          62.2608   89.5795   10.3317 C.3     1  UNL1        0.0216
     27 C          62.1024   89.8564   11.7973 C.3     1  UNL1        0.0217
     28 C          63.3051   89.8632   12.6937 C.3     1  UNL1        0.0792
     29 N          63.8592   91.1636   13.1955 N.am    1  UNL1       -0.2720
     30 C          64.6821   92.0286   12.2873 C.2     1  UNL1        0.4019
     31 O          64.9508   91.5930   10.8773 O.2     1  UNL1       -0.2264
     32 H          63.6828   91.4495   14.1210 H       1  UNL1        0.1527
     33 O          65.2361   93.3290   12.7891 O.3     1  UNL1       -0.4291
     34 C          66.5240   93.8600   12.2329 C.3     1  UNL1        0.2447
     35 C          66.5215   94.6479   10.9565 C.ar    1  UNL1        0.0714
     36 C          67.0633   94.1882    9.6355 C.ar    1  UNL1        0.1053
     37 N          66.8534   95.2901    8.6396 N.ar    1  UNL1       -0.2350
     38 C          66.1819   96.4308    9.3451 C.ar    1  UNL1        0.1343
     39 S          65.9768   96.0339   10.7770 S.2     1  UNL1       -0.0652
     40 C          63.9537   88.5695   13.0883 C.3     1  UNL1        0.0460
     41 C          63.7369   88.0105   14.4633 C.ar    1  UNL1       -0.0205
     42 C          63.9596   86.5500   14.7229 C.ar    1  UNL1       -0.0042
     43 C          63.7428   85.9911   16.0978 C.ar    1  UNL1       -0.0003
     44 C          63.3032   86.8926   17.2132 C.ar    1  UNL1       -0.0000
     45 C          63.0804   88.3531   16.9536 C.ar    1  UNL1       -0.0003
     46 C          63.2972   88.9120   15.5786 C.ar    1  UNL1       -0.0042
     47 C          60.5432   87.7064    9.7918 C.3     1  UNL1        0.0459
     48 C          61.4753   86.5486    9.9929 C.ar    1  UNL1       -0.0205
     49 C          62.2355   85.9867    8.8282 C.ar    1  UNL1       -0.0042
     50 C          63.1676   84.8288    9.0293 C.ar    1  UNL1       -0.0003
     51 C          63.3396   84.2328   10.3951 C.ar    1  UNL1       -0.0000
     52 C          62.5794   84.7947   11.5597 C.ar    1  UNL1       -0.0003
     53 C          61.6473   85.9526   11.3586 C.ar    1  UNL1       -0.0042
@<TRIPOS>BOND
     1    19    20    1
     2    20    21    1
     3    20    14    1
     4    14    15   ar
     5    15    16   ar
     6    16    13    1
     7    13     7    1
     8     7     8    1
     9     7     9   am
    10     9    10    2
    11     9    11   am
    12    11     6    1
    13     6    22    1
    14    22    23    1
    15    23    24    1
    16     6     2    1
    17     2     3    2
    18     2     4   am
    19     4     1    1
    20     1    26    1
    21    26    27    1
    22    28    27    1
    23    28    40    1
    24    40    41    1
    25    41    42   ar
    26    42    43   ar
    27    43    44   ar
    28    44    45   ar
    29    45    46   ar
    30    28    29    1
    31    29    30   am
    32    30    31    2
    33    30    33    1
    34    33    34    1
    35    34    35    1
    36    35    36   ar
    37    36    37   ar
    38    37    38   ar
    39    38    39   ar
    40     1    47    1
    41    47    48    1
    42    48    49   ar
    43    49    50   ar
    44    50    51   ar
    45    51    52   ar
    46    52    53   ar
    47    16    17   ar
    48    17    18   ar
    49    18    14   ar
    50    46    41   ar
    51    39    35   ar
    52    53    48   ar
    53    11    12    1
    54    24    25    1
    55     4     5    1
    56    29    32    1
@<TRIPOS>MOLECULE
*****
 53 56 0 0 0
SMALL
GASTEIGER

@<TRIPOS>ATOM
      1 C          63.8931   85.2472   14.4225 C.3     1  UNL1        0.0760
      2 C          63.9330   87.8405   14.2697 C.2     1  UNL1        0.2404
      3 O          63.4212   87.7654   12.8618 O.2     1  UNL1       -0.2733
      4 N          64.1690   86.5813   15.0501 N.am    1  UNL1       -0.3043
      5 H          64.5049   86.6306   15.9742 H       1  UNL1        0.1494
      6 C          64.2089   89.1746   14.8974 C.3     1  UNL1        0.1522
      7 N          66.6357   92.2762   14.4063 N.am    1  UNL1       -0.2567
      8 C          66.8840   93.6279   15.0072 C.3     1  UNL1        0.1168
      9 C          65.5465   91.4013   14.9522 C.2     1  UNL1        0.3046
     10 O          64.7054   91.8782   16.0992 O.2     1  UNL1       -0.2526
     11 N          65.2982   90.0495   14.3513 N.am    1  UNL1       -0.2824
     12 H          65.8501   89.7365   13.5986 H       1  UNL1        0.1514
     13 C          67.4766   91.7993   13.2594 C.3     1  UNL1        0.1413
     14 C          66.9674   94.1830   10.2388 C.ar    1  UNL1        0.0875
     15 N          66.7745   93.8439   11.6872 N.ar    1  UNL1       -0.2453
     16 C          67.4283   92.5185   11.9439 C.ar    1  UNL1        0.0858
     17 C          68.0252   92.0385   10.6542 C.ar    1  UNL1        0.0530
     18 S          67.7404   93.0672    9.6004 S.2     1  UNL1       -0.0705
     19 C          67.0727   95.8390    8.2397 C.3     1  UNL1        0.0069
     20 C          66.4740   95.4207    9.5498 C.3     1  UNL1        0.0465
     21 C          65.3818   96.2400   10.1710 C.3     1  UNL1        0.0069
     22 C          63.3955   89.6339   16.0710 C.3     1  UNL1        0.0607
     23 C          63.1224   88.6944   17.2080 C.3     1  UNL1        0.1394
     24 O          62.2392   87.5003   16.9986 O.3     1  UNL1       -0.3819
     25 H          61.3345   87.7961   16.8116 H       1  UNL1        0.2104
     26 C          63.9586   85.0916   12.9321 C.3     1  UNL1        0.0216
     27 C          62.7175   84.7614   12.1572 C.3     1  UNL1        0.0217
     28 C          62.3242   85.6004   10.9776 C.3     1  UNL1        0.0792
     29 N          61.1909   86.5759   11.0955 N.am    1  UNL1       -0.2720
     30 C          61.3061   87.9378   10.4773 C.2     1  UNL1        0.4019
     31 O          62.5546   88.3240    9.7411 O.2     1  UNL1       -0.2264
     32 H          60.3715   86.3224   11.5788 H       1  UNL1        0.1527
     33 O          60.1728   88.9133   10.5952 O.3     1  UNL1       -0.4291
     34 C          60.4553   90.3834   10.6886 C.3     1  UNL1        0.2447
     35 C          61.8491   90.8632   10.9662 C.ar    1  UNL1        0.0714
     36 C          62.5205   90.8934   12.3072 C.ar    1  UNL1        0.1053
     37 N          63.9027   91.4458   12.1213 N.ar    1  UNL1       -0.2350
     38 C          64.0855   91.7570   10.6654 C.ar    1  UNL1        0.1343
     39 S          62.8164   91.3969    9.9515 S.2     1  UNL1       -0.0652
     40 C          63.0643   85.4639    9.6801 C.3     1  UNL1        0.0460
     41 C          62.3090   85.2127    8.4086 C.ar    1  UNL1       -0.0205
     42 C          60.8779   85.6456    8.2884 C.ar    1  UNL1       -0.0042
     43 C          60.1227   85.3944    7.0170 C.ar    1  UNL1       -0.0003
     44 C          60.7986   84.7104    5.8658 C.ar    1  UNL1       -0.0000
     45 C          62.2297   84.2774    5.9860 C.ar    1  UNL1       -0.0003
     46 C          62.9849   84.5286    7.2575 C.ar    1  UNL1       -0.0042
     47 C          63.5518   84.0686   15.2854 C.3     1  UNL1        0.0459
     48 C          63.0854   82.7890   14.6568 C.ar    1  UNL1       -0.0205
     49 C          64.0653   81.8997   13.9504 C.ar    1  UNL1       -0.0042
     50 C          63.5988   80.6200   13.3218 C.ar    1  UNL1       -0.0003
     51 C          62.1526   80.2297   13.3998 C.ar    1  UNL1       -0.0000
     52 C          61.1728   81.1190   14.1062 C.ar    1  UNL1       -0.0003
     53 C          61.6392   82.3987   14.7348 C.ar    1  UNL1       -0.0042
@<TRIPOS>BOND
     1    19    20    1
     2    20    21    1
     3    20    14    1
     4    14    15   ar
     5    15    16   ar
     6    16    13    1
     7    13     7    1
     8     7     8    1
     9     7     9   am
    10     9    10    2
    11     9    11   am
    12    11     6    1
    13     6    22    1
    14    22    23    1
    15    23    24    1
    16     6     2    1
    17     2     3    2
    18     2     4   am
    19     4     1    1
    20     1    26    1
    21    26    27    1
    22    28    27    1
    23    28    40    1
    24    40    41    1
    25    41    42   ar
    26    42    43   ar
    27    43    44   ar
    28    44    45   ar
    29    45    46   ar
    30    28    29    1
    31    29    30   am
    32    30    31    2
    33    30    33    1
    34    33    34    1
    35    34    35    1
    36    35    36   ar
    37    36    37   ar
    38    37    38   ar
    39    38    39   ar
    40     1    47    1
    41    47    48    1
    42    48    49   ar
    43    49    50   ar
    44    50    51   ar
    45    51    52   ar
    46    52    53   ar
    47    16    17   ar
    48    17    18   ar
    49    18    14   ar
    50    46    41   ar
    51    39    35   ar
    52    53    48   ar
    53    11    12    1
    54    24    25    1
    55     4     5    1
    56    29    32    1
