@<TRIPOS>MOLECULE
*****
 35 39 0 0 0
SMALL
GASTEIGER

@<TRIPOS>ATOM
      1 C          63.0428   84.3686   11.9777 C.ar    1  UNL1        0.0014
      2 C          62.4310   85.3331   11.0054 C.ar    1  UNL1        0.0013
      3 C          62.5287   86.8096   11.2514 C.ar    1  UNL1        0.0146
      4 C          63.2381   87.3216   12.4698 C.ar    1  UNL1        0.0499
      5 C          63.8499   86.3572   13.4422 C.ar    1  UNL1       -0.0068
      6 C          63.7522   84.8807   13.1962 C.ar    1  UNL1       -0.0029
      7 C          64.4821   87.1510   14.5468 C.3     1  UNL1        0.0495
      8 C          64.2611   88.6060   14.2571 C.3     1  UNL1        0.1029
      9 N          63.4923   88.7114   12.9734 N.am    1  UNL1       -0.2583
     10 C          63.0545   89.9834   12.3099 C.2     1  UNL1        0.2338
     11 O          62.2880   89.9320   11.0215 O.2     1  UNL1       -0.2742
     12 C          63.2337   79.6465    9.6228 C.3     1  UNL1        0.1319
     13 N          63.0328   80.7217   10.6493 N.ar    1  UNL1       -0.3094
     14 C          63.2729   82.1886   10.4482 C.ar    1  UNL1        0.0772
     15 C          62.9451   82.8922   11.7317 C.ar    1  UNL1        0.0228
     16 C          62.5025   81.8601   12.7262 C.ar    1  UNL1        0.0668
     17 C          62.0570   81.9685   14.1544 C.ar    1  UNL1        0.1300
     18 N          62.0028   83.3099   14.8233 N.pl3   1  UNL1       -0.3425
     19 N          61.6659   80.7354   14.9136 N.ar    1  UNL1       -0.2094
     20 C          61.7201   79.3939   14.2446 C.ar    1  UNL1        0.2014
     21 N          62.1655   79.2855   12.8164 N.ar    1  UNL1       -0.2065
     22 C          62.5567   80.5186   12.0572 C.ar    1  UNL1        0.1483
     23 H          62.2595   84.1192   14.3250 H       1  UNL1        0.1437
     24 H          61.7104   83.3811   15.7607 H       1  UNL1        0.1437
     25 C          63.3831   91.3070   12.9348 C.3     1  UNL1        0.1119
     26 C          64.7916   91.8219   12.9039 C.ar    1  UNL1       -0.0131
     27 C          65.3689   92.3509   11.6246 C.ar    1  UNL1       -0.0038
     28 C          66.7774   92.8658   11.5938 C.ar    1  UNL1       -0.0004
     29 C          67.6086   92.8516   12.8423 C.ar    1  UNL1        0.0038
     30 C          67.0313   92.3226   14.1217 C.ar    1  UNL1        0.0711
     31 C          65.6228   91.8078   14.1525 C.ar    1  UNL1        0.0001
     32 C          67.8626   92.3085   15.3702 C.3     1  UNL1        0.4186
     33 F          68.6938   92.2944   16.6188 F       1  UNL1       -0.1659
     34 F          69.1111   92.3379   14.5394 F       1  UNL1       -0.1659
     35 F          66.6140   92.2791   16.2011 F       1  UNL1       -0.1659
@<TRIPOS>BOND
     1    12    13    1
     2    13    14   ar
     3    14    15   ar
     4    15     1    1
     5     1     2   ar
     6     2     3   ar
     7     3     4   ar
     8     4     5   ar
     9     5     6   ar
    10     5     7    1
    11     7     8    1
    12     8     9    1
    13     9    10   am
    14    10    11    2
    15    10    25    1
    16    25    26    1
    17    26    27   ar
    18    27    28   ar
    19    28    29   ar
    20    29    30   ar
    21    30    32    1
    22    32    33    1
    23    32    34    1
    24    32    35    1
    25    30    31   ar
    26    15    16   ar
    27    16    17   ar
    28    17    18    1
    29    17    19   ar
    30    19    20   ar
    31    20    21   ar
    32    21    22   ar
    33    22    13   ar
    34     6     1   ar
    35    31    26   ar
    36    22    16   ar
    37     9     4    1
    38    18    23    1
    39    18    24    1
@<TRIPOS>MOLECULE
*****
 35 39 0 0 0
SMALL
GASTEIGER

@<TRIPOS>ATOM
      1 C          63.0288   84.3311   11.9199 C.ar    1  UNL1        0.0014
      2 C          62.4105   85.2753   10.9320 C.ar    1  UNL1        0.0013
      3 C          62.5000   86.7563   11.1528 C.ar    1  UNL1        0.0146
      4 C          63.2077   87.2930   12.3615 C.ar    1  UNL1        0.0499
      5 C          63.8260   86.3488   13.3495 C.ar    1  UNL1       -0.0068
      6 C          63.7365   84.8678   13.1287 C.ar    1  UNL1       -0.0029
      7 C          64.4548   87.1649   14.4397 C.3     1  UNL1        0.0495
      8 C          64.2251   88.6135   14.1255 C.3     1  UNL1        0.1029
      9 N          63.4544   88.6927   12.8411 N.am    1  UNL1       -0.2583
     10 C          63.0086   89.9507   12.1566 C.2     1  UNL1        0.2338
     11 O          62.2412   89.8730   10.8701 O.2     1  UNL1       -0.2742
     12 C          63.2389   79.5713    9.6437 C.3     1  UNL1        0.1319
     13 N          63.0359   80.6623   10.6529 N.ar    1  UNL1       -0.3094
     14 C          63.2658   82.1271   10.4261 C.ar    1  UNL1        0.0772
     15 C          62.9393   82.8501   11.6992 C.ar    1  UNL1        0.0228
     16 C          62.5076   81.8321   12.7128 C.ar    1  UNL1        0.0668
     17 C          62.0679   81.9617   14.1410 C.ar    1  UNL1        0.1300
     18 N          62.0082   83.3139   14.7876 N.pl3   1  UNL1       -0.3425
     19 N          61.6879   80.7392   14.9226 N.ar    1  UNL1       -0.2094
     20 C          61.7476   79.3870   14.2760 C.ar    1  UNL1        0.2014
     21 N          62.1873   79.2574   12.8478 N.ar    1  UNL1       -0.2065
     22 C          62.5673   80.4800   12.0662 C.ar    1  UNL1        0.1483
     23 H          62.2577   84.1163   14.2746 H       1  UNL1        0.1437
     24 H          61.7196   83.3989   15.7250 H       1  UNL1        0.1437
     25 C          63.3303   91.2865   12.7584 C.3     1  UNL1        0.1119
     26 C          64.7334   91.8142   12.7066 C.ar    1  UNL1       -0.0131
     27 C          65.5460   91.9092   13.9638 C.ar    1  UNL1       -0.0038
     28 C          66.9491   92.4369   13.9119 C.ar    1  UNL1       -0.0004
     29 C          67.5397   92.8696   12.6028 C.ar    1  UNL1        0.0038
     30 C          66.7272   92.7747   11.3455 C.ar    1  UNL1        0.0711
     31 C          65.3241   92.2470   11.3974 C.ar    1  UNL1        0.0001
     32 C          67.3179   93.2074   10.0364 C.3     1  UNL1        0.4186
     33 F          67.9085   93.6402    8.7272 F       1  UNL1       -0.1659
     34 F          66.9200   94.6246   10.3253 F       1  UNL1       -0.1659
     35 F          67.7157   91.7903    9.7474 F       1  UNL1       -0.1659
@<TRIPOS>BOND
     1    12    13    1
     2    13    14   ar
     3    14    15   ar
     4    15     1    1
     5     1     2   ar
     6     2     3   ar
     7     3     4   ar
     8     4     5   ar
     9     5     6   ar
    10     5     7    1
    11     7     8    1
    12     8     9    1
    13     9    10   am
    14    10    11    2
    15    10    25    1
    16    25    26    1
    17    26    27   ar
    18    27    28   ar
    19    28    29   ar
    20    29    30   ar
    21    30    32    1
    22    32    33    1
    23    32    34    1
    24    32    35    1
    25    30    31   ar
    26    15    16   ar
    27    16    17   ar
    28    17    18    1
    29    17    19   ar
    30    19    20   ar
    31    20    21   ar
    32    21    22   ar
    33    22    13   ar
    34     6     1   ar
    35    31    26   ar
    36    22    16   ar
    37     9     4    1
    38    18    23    1
    39    18    24    1
@<TRIPOS>MOLECULE
*****
 35 39 0 0 0
SMALL
GASTEIGER

@<TRIPOS>ATOM
      1 C          63.0019   85.4523   12.9654 C.ar    1  UNL1        0.0014
      2 C          63.9021   86.0649   13.9970 C.ar    1  UNL1        0.0013
      3 C          64.2401   87.5245   13.9258 C.ar    1  UNL1        0.0146
      4 C          63.6780   88.3717   12.8230 C.ar    1  UNL1        0.0499
      5 C          62.7777   87.7591   11.7913 C.ar    1  UNL1       -0.0068
      6 C          62.4396   86.2995   11.8625 C.ar    1  UNL1       -0.0029
      7 C          62.3764   88.8365   10.8278 C.3     1  UNL1        0.0495
      8 C          63.0287   90.1149   11.2640 C.3     1  UNL1        0.1029
      9 N          63.8331   89.8276   12.4971 N.am    1  UNL1       -0.2583
     10 C          64.6492   90.8217   13.2688 C.2     1  UNL1        0.2338
     11 O          65.4049   90.3857   14.4890 O.2     1  UNL1       -0.2742
     12 C          61.1599   80.8007   14.6536 C.3     1  UNL1        0.1319
     13 N          61.8172   81.8545   13.8125 N.ar    1  UNL1       -0.3094
     14 C          61.9369   83.3096   14.1568 C.ar    1  UNL1        0.0772
     15 C          62.6638   83.9926   13.0366 C.ar    1  UNL1        0.0228
     16 C          62.9934   82.9597   11.9999 C.ar    1  UNL1        0.0668
     17 C          63.7023   83.0518   10.6813 C.ar    1  UNL1        0.1300
     18 N          64.2256   84.3732   10.2017 N.pl3   1  UNL1       -0.3425
     19 N          63.8880   81.8224    9.8422 N.ar    1  UNL1       -0.2094
     20 C          63.3647   80.5009   10.3218 C.ar    1  UNL1        0.2014
     21 N          62.6557   80.4089   11.6405 N.ar    1  UNL1       -0.2065
     22 C          62.4701   81.6383   12.4795 C.ar    1  UNL1        0.1483
     23 H          64.1037   85.1801   10.7524 H       1  UNL1        0.1437
     24 H          64.6909   84.4336    9.3362 H       1  UNL1        0.1437
     25 C          64.7098   92.2519   12.8202 C.3     1  UNL1        0.1119
     26 C          65.7268   92.6763   11.8025 C.ar    1  UNL1       -0.0131
     27 C          66.9797   91.8735   11.6144 C.ar    1  UNL1       -0.0038
     28 C          67.9967   92.2979   10.5967 C.ar    1  UNL1       -0.0004
     29 C          67.7606   93.5251    9.7672 C.ar    1  UNL1        0.0038
     30 C          66.5076   94.3279    9.9553 C.ar    1  UNL1        0.0711
     31 C          65.4907   93.9035   10.9730 C.ar    1  UNL1        0.0001
     32 C          66.2716   95.5552    9.1258 C.3     1  UNL1        0.4186
     33 F          66.0355   96.7825    8.2962 F       1  UNL1       -0.1659
     34 F          67.1253   94.9815    8.0340 F       1  UNL1       -0.1659
     35 F          65.4178   96.1289   10.2175 F       1  UNL1       -0.1659
@<TRIPOS>BOND
     1    12    13    1
     2    13    14   ar
     3    14    15   ar
     4    15     1    1
     5     1     2   ar
     6     2     3   ar
     7     3     4   ar
     8     4     5   ar
     9     5     6   ar
    10     5     7    1
    11     7     8    1
    12     8     9    1
    13     9    10   am
    14    10    11    2
    15    10    25    1
    16    25    26    1
    17    26    27   ar
    18    27    28   ar
    19    28    29   ar
    20    29    30   ar
    21    30    32    1
    22    32    33    1
    23    32    34    1
    24    32    35    1
    25    30    31   ar
    26    15    16   ar
    27    16    17   ar
    28    17    18    1
    29    17    19   ar
    30    19    20   ar
    31    20    21   ar
    32    21    22   ar
    33    22    13   ar
    34     6     1   ar
    35    31    26   ar
    36    22    16   ar
    37     9     4    1
    38    18    23    1
    39    18    24    1
@<TRIPOS>MOLECULE
*****
 35 39 0 0 0
SMALL
GASTEIGER

@<TRIPOS>ATOM
      1 C          62.7348   84.5639   12.8224 C.ar    1  UNL1        0.0014
      2 C          62.1702   85.3736   11.6930 C.ar    1  UNL1        0.0013
      3 C          62.4033   86.8545   11.6421 C.ar    1  UNL1        0.0146
      4 C          63.2009   87.5257   12.7207 C.ar    1  UNL1        0.0499
      5 C          63.7655   86.7160   13.8501 C.ar    1  UNL1       -0.0068
      6 C          63.5324   85.2351   13.9010 C.ar    1  UNL1       -0.0029
      7 C          64.5059   87.6475   14.7634 C.3     1  UNL1        0.0495
      8 C          64.3989   89.0329   14.1984 C.3     1  UNL1        0.1029
      9 N          63.5924   88.9576   12.9360 N.am    1  UNL1       -0.2583
     10 C          63.2393   90.1116   12.0452 C.2     1  UNL1        0.2338
     11 O          62.4216   89.8820   10.8088 O.2     1  UNL1       -0.2742
     12 C          61.2913   79.7613   14.4754 C.3     1  UNL1        0.1319
     13 N          61.8383   80.8755   13.6331 N.ar    1  UNL1       -0.3094
     14 C          61.8714   82.3280   14.0059 C.ar    1  UNL1        0.0772
     15 C          62.5017   83.0829   12.8733 C.ar    1  UNL1        0.0228
     16 C          62.8581   82.0970   11.8005 C.ar    1  UNL1        0.0668
     17 C          63.5030   82.2652   10.4567 C.ar    1  UNL1        0.1300
     18 N          63.9130   83.6296    9.9872 N.pl3   1  UNL1       -0.3425
     19 N          63.7378   81.0692    9.5825 N.ar    1  UNL1       -0.2094
     20 C          63.3278   79.7049   10.0521 C.ar    1  UNL1        0.2014
     21 N          62.6829   79.5366   11.3959 N.ar    1  UNL1       -0.2065
     22 C          62.4480   80.7327   12.2701 C.ar    1  UNL1        0.1483
     23 H          63.7589   84.4146   10.5609 H       1  UNL1        0.1437
     24 H          64.3363   83.7400    9.1052 H       1  UNL1        0.1437
     25 C          63.7040   91.4954   12.3907 C.3     1  UNL1        0.1119
     26 C          65.1589   91.8456   12.2877 C.ar    1  UNL1       -0.0131
     27 C          66.0218   91.8339   13.5145 C.ar    1  UNL1       -0.0038
     28 C          67.4767   92.1841   13.4114 C.ar    1  UNL1       -0.0004
     29 C          68.0687   92.5460   12.0816 C.ar    1  UNL1        0.0038
     30 C          67.2058   92.5577   10.8547 C.ar    1  UNL1        0.0711
     31 C          65.7509   92.2075   10.9578 C.ar    1  UNL1        0.0001
     32 C          67.7977   92.9196    9.5248 C.3     1  UNL1        0.4186
     33 F          68.3897   93.2815    8.1949 F       1  UNL1       -0.1659
     34 F          68.0799   91.4711    9.2563 F       1  UNL1       -0.1659
     35 F          67.5155   94.3682    9.7934 F       1  UNL1       -0.1659
@<TRIPOS>BOND
     1    12    13    1
     2    13    14   ar
     3    14    15   ar
     4    15     1    1
     5     1     2   ar
     6     2     3   ar
     7     3     4   ar
     8     4     5   ar
     9     5     6   ar
    10     5     7    1
    11     7     8    1
    12     8     9    1
    13     9    10   am
    14    10    11    2
    15    10    25    1
    16    25    26    1
    17    26    27   ar
    18    27    28   ar
    19    28    29   ar
    20    29    30   ar
    21    30    32    1
    22    32    33    1
    23    32    34    1
    24    32    35    1
    25    30    31   ar
    26    15    16   ar
    27    16    17   ar
    28    17    18    1
    29    17    19   ar
    30    19    20   ar
    31    20    21   ar
    32    21    22   ar
    33    22    13   ar
    34     6     1   ar
    35    31    26   ar
    36    22    16   ar
    37     9     4    1
    38    18    23    1
    39    18    24    1
@<TRIPOS>MOLECULE
*****
 35 39 0 0 0
SMALL
GASTEIGER

@<TRIPOS>ATOM
      1 C          62.7470   84.5911   12.7913 C.ar    1  UNL1        0.0014
      2 C          62.1778   85.3810   11.6503 C.ar    1  UNL1        0.0013
      3 C          62.3917   86.8642   11.5844 C.ar    1  UNL1        0.0146
      4 C          63.1748   87.5576   12.6596 C.ar    1  UNL1        0.0499
      5 C          63.7440   86.7677   13.8006 C.ar    1  UNL1       -0.0068
      6 C          63.5302   85.2845   13.8665 C.ar    1  UNL1       -0.0029
      7 C          64.4674   87.7187   14.7074 C.3     1  UNL1        0.0495
      8 C          64.3452   89.0964   14.1268 C.3     1  UNL1        0.1029
      9 N          63.5463   88.9968   12.8612 N.am    1  UNL1       -0.2583
     10 C          63.1828   90.1363   11.9561 C.2     1  UNL1        0.2338
     11 O          62.3746   89.8825   10.7181 O.2     1  UNL1       -0.2742
     12 C          61.4024   79.7827   14.5093 C.3     1  UNL1        0.1319
     13 N          61.9151   80.8978   13.6469 N.ar    1  UNL1       -0.3094
     14 C          61.9399   82.3530   14.0097 C.ar    1  UNL1        0.0772
     15 C          62.5331   83.1079   12.8572 C.ar    1  UNL1        0.0228
     16 C          62.8750   82.1192   11.7822 C.ar    1  UNL1        0.0668
     17 C          63.4848   82.2863   10.4220 C.ar    1  UNL1        0.1300
     18 N          63.8668   83.6523    9.9339 N.pl3   1  UNL1       -0.3425
     19 N          63.7126   81.0874    9.5498 N.ar    1  UNL1       -0.2094
     20 C          63.3306   79.7214   10.0379 C.ar    1  UNL1        0.2014
     21 N          62.7208   79.5544   11.3981 N.ar    1  UNL1       -0.2065
     22 C          62.4931   80.7533   12.2702 C.ar    1  UNL1        0.1483
     23 H          63.7173   84.4392   10.5064 H       1  UNL1        0.1437
     24 H          64.2670   83.7619    9.0412 H       1  UNL1        0.1437
     25 C          63.6275   91.5298   12.2888 C.3     1  UNL1        0.1119
     26 C          65.0904   91.8535   12.3591 C.ar    1  UNL1       -0.0131
     27 C          65.8446   92.1921   11.1076 C.ar    1  UNL1       -0.0038
     28 C          67.3076   92.5159   11.1779 C.ar    1  UNL1       -0.0004
     29 C          68.0163   92.5010   12.4997 C.ar    1  UNL1        0.0038
     30 C          67.2622   92.1623   13.7513 C.ar    1  UNL1        0.0711
     31 C          65.7992   91.8386   13.6810 C.ar    1  UNL1        0.0001
     32 C          67.9709   92.1474   15.0732 C.3     1  UNL1        0.4186
     33 F          68.6797   92.1325   16.3951 F       1  UNL1       -0.1659
     34 F          66.6607   91.9396   15.7734 F       1  UNL1       -0.1659
     35 F          69.2811   92.3552   14.3731 F       1  UNL1       -0.1659
@<TRIPOS>BOND
     1    12    13    1
     2    13    14   ar
     3    14    15   ar
     4    15     1    1
     5     1     2   ar
     6     2     3   ar
     7     3     4   ar
     8     4     5   ar
     9     5     6   ar
    10     5     7    1
    11     7     8    1
    12     8     9    1
    13     9    10   am
    14    10    11    2
    15    10    25    1
    16    25    26    1
    17    26    27   ar
    18    27    28   ar
    19    28    29   ar
    20    29    30   ar
    21    30    32    1
    22    32    33    1
    23    32    34    1
    24    32    35    1
    25    30    31   ar
    26    15    16   ar
    27    16    17   ar
    28    17    18    1
    29    17    19   ar
    30    19    20   ar
    31    20    21   ar
    32    21    22   ar
    33    22    13   ar
    34     6     1   ar
    35    31    26   ar
    36    22    16   ar
    37     9     4    1
    38    18    23    1
    39    18    24    1
@<TRIPOS>MOLECULE
*****
 35 39 0 0 0
SMALL
GASTEIGER

@<TRIPOS>ATOM
      1 C          61.8724   85.8734   10.8975 C.ar    1  UNL1        0.0014
      2 C          61.5119   85.4857    9.4941 C.ar    1  UNL1        0.0013
      3 C          60.8742   86.4888    8.5791 C.ar    1  UNL1        0.0146
      4 C          60.5970   87.8797    9.0676 C.ar    1  UNL1        0.0499
      5 C          60.9575   88.2675   10.4711 C.ar    1  UNL1       -0.0068
      6 C          61.5952   87.2644   11.3860 C.ar    1  UNL1       -0.0029
      7 C          60.5666   89.7018   10.6706 C.3     1  UNL1        0.0495
      8 C          59.9644   90.2005    9.3905 C.3     1  UNL1        0.1029
      9 N          59.9833   89.0744    8.3998 N.am    1  UNL1       -0.2583
     10 C          59.4772   89.1327    6.9890 C.2     1  UNL1        0.2338
     11 O          59.5627   87.9197    6.1107 O.2     1  UNL1       -0.2742
     12 C          63.3542   81.3024   13.0862 C.3     1  UNL1        0.1319
     13 N          63.1912   82.7693   12.8184 N.ar    1  UNL1       -0.3094
     14 C          62.3991   83.3787   11.6999 C.ar    1  UNL1        0.0772
     15 C          62.5101   84.8703   11.8124 C.ar    1  UNL1        0.0228
     16 C          63.3708   85.1828   13.0005 C.ar    1  UNL1        0.0668
     17 C          63.8255   86.4820   13.5966 C.ar    1  UNL1        0.1300
     18 N          63.4046   87.7805   12.9748 N.pl3   1  UNL1       -0.3425
     19 N          64.7013   86.4826   14.8144 N.ar    1  UNL1       -0.2094
     20 C          65.1222   85.1841   15.4361 C.ar    1  UNL1        0.2014
     21 N          64.6674   83.8849   14.8401 N.ar    1  UNL1       -0.2065
     22 C          63.7917   83.8843   13.6223 C.ar    1  UNL1        0.1483
     23 H          62.8298   87.7801   12.1755 H       1  UNL1        0.1437
     24 H          63.7031   88.6332   13.3660 H       1  UNL1        0.1437
     25 C          58.8855   90.4041    6.4564 C.3     1  UNL1        0.1119
     26 C          59.5167   91.0906    5.2815 C.ar    1  UNL1       -0.0131
     27 C          58.7262   92.0793    4.4769 C.ar    1  UNL1       -0.0038
     28 C          59.3575   92.7658    3.3021 C.ar    1  UNL1       -0.0004
     29 C          60.7792   92.4636    2.9319 C.ar    1  UNL1        0.0038
     30 C          61.5698   91.4749    3.7365 C.ar    1  UNL1        0.0711
     31 C          60.9386   90.7884    4.9113 C.ar    1  UNL1        0.0001
     32 C          62.9917   91.1726    3.3663 C.3     1  UNL1        0.4186
     33 F          64.4135   90.8704    2.9960 F       1  UNL1       -0.1659
     34 F          62.7193   89.7054    3.5179 F       1  UNL1       -0.1659
     35 F          63.2641   92.6399    3.2146 F       1  UNL1       -0.1659
@<TRIPOS>BOND
     1    12    13    1
     2    13    14   ar
     3    14    15   ar
     4    15     1    1
     5     1     2   ar
     6     2     3   ar
     7     3     4   ar
     8     4     5   ar
     9     5     6   ar
    10     5     7    1
    11     7     8    1
    12     8     9    1
    13     9    10   am
    14    10    11    2
    15    10    25    1
    16    25    26    1
    17    26    27   ar
    18    27    28   ar
    19    28    29   ar
    20    29    30   ar
    21    30    32    1
    22    32    33    1
    23    32    34    1
    24    32    35    1
    25    30    31   ar
    26    15    16   ar
    27    16    17   ar
    28    17    18    1
    29    17    19   ar
    30    19    20   ar
    31    20    21   ar
    32    21    22   ar
    33    22    13   ar
    34     6     1   ar
    35    31    26   ar
    36    22    16   ar
    37     9     4    1
    38    18    23    1
    39    18    24    1
@<TRIPOS>MOLECULE
*****
 35 39 0 0 0
SMALL
GASTEIGER

@<TRIPOS>ATOM
      1 C          62.8046   85.6508   12.4998 C.ar    1  UNL1        0.0014
      2 C          63.7093   86.4440   13.3953 C.ar    1  UNL1        0.0013
      3 C          63.9220   87.9069   13.1409 C.ar    1  UNL1        0.0146
      4 C          63.2300   88.5766   11.9909 C.ar    1  UNL1        0.0499
      5 C          62.3252   87.7834   11.0953 C.ar    1  UNL1       -0.0068
      6 C          62.1125   86.3205   11.3497 C.ar    1  UNL1       -0.0029
      7 C          61.7824   88.7092   10.0473 C.3     1  UNL1        0.0495
      8 C          62.3517   90.0746   10.2953 C.3     1  UNL1        0.1029
      9 N          63.2464   89.9926   11.4965 N.am    1  UNL1       -0.2583
     10 C          64.0214   91.1275   12.0977 C.2     1  UNL1        0.2338
     11 O          64.8789   90.8931   13.3058 O.2     1  UNL1       -0.2742
     12 C          61.4759   81.0987   14.8222 C.3     1  UNL1        0.1319
     13 N          61.9811   82.0955   13.8217 N.ar    1  UNL1       -0.3094
     14 C          62.0083   83.5849   13.9976 C.ar    1  UNL1        0.0772
     15 C          62.5918   84.1879   12.7542 C.ar    1  UNL1        0.0228
     16 C          62.9252   83.0712   11.8099 C.ar    1  UNL1        0.0668
     17 C          63.5238   83.0648   10.4345 C.ar    1  UNL1        0.1300
     18 N          63.9012   84.3579    9.7748 N.pl3   1  UNL1       -0.3425
     19 N          63.7448   81.7652    9.7189 N.ar    1  UNL1       -0.2094
     20 C          63.3674   80.4720   10.3786 C.ar    1  UNL1        0.2014
     21 N          62.7689   80.4784   11.7540 N.ar    1  UNL1       -0.2065
     22 C          62.5478   81.7780   12.4696 C.ar    1  UNL1        0.1483
     23 H          63.7561   85.2109   10.2445 H       1  UNL1        0.1437
     24 H          64.2940   84.3537    8.8720 H       1  UNL1        0.1437
     25 C          63.9388   92.4968   11.4907 C.3     1  UNL1        0.1119
     26 C          65.1829   93.1758   10.9996 C.ar    1  UNL1       -0.0131
     27 C          65.4160   94.6258   11.3043 C.ar    1  UNL1       -0.0038
     28 C          66.6601   95.3048   10.8133 C.ar    1  UNL1       -0.0004
     29 C          67.6711   94.5337   10.0175 C.ar    1  UNL1        0.0038
     30 C          67.4380   93.0836    9.7127 C.ar    1  UNL1        0.0711
     31 C          66.1939   92.4047   10.2038 C.ar    1  UNL1        0.0001
     32 C          68.4490   92.3125    8.9169 C.3     1  UNL1        0.4186
     33 F          69.4599   91.5414    8.1211 F       1  UNL1       -0.1659
     34 F          68.5168   91.2803   10.0032 F       1  UNL1       -0.1659
     35 F          68.3811   93.3447    7.8306 F       1  UNL1       -0.1659
@<TRIPOS>BOND
     1    12    13    1
     2    13    14   ar
     3    14    15   ar
     4    15     1    1
     5     1     2   ar
     6     2     3   ar
     7     3     4   ar
     8     4     5   ar
     9     5     6   ar
    10     5     7    1
    11     7     8    1
    12     8     9    1
    13     9    10   am
    14    10    11    2
    15    10    25    1
    16    25    26    1
    17    26    27   ar
    18    27    28   ar
    19    28    29   ar
    20    29    30   ar
    21    30    32    1
    22    32    33    1
    23    32    34    1
    24    32    35    1
    25    30    31   ar
    26    15    16   ar
    27    16    17   ar
    28    17    18    1
    29    17    19   ar
    30    19    20   ar
    31    20    21   ar
    32    21    22   ar
    33    22    13   ar
    34     6     1   ar
    35    31    26   ar
    36    22    16   ar
    37     9     4    1
    38    18    23    1
    39    18    24    1
@<TRIPOS>MOLECULE
*****
 35 39 0 0 0
SMALL
GASTEIGER

@<TRIPOS>ATOM
      1 C          62.5456   94.2543   -2.6922 C.ar    1  UNL1        0.0014
      2 C          61.1366   93.9529   -2.2754 C.ar    1  UNL1        0.0013
      3 C          60.8413   93.5612   -0.8578 C.ar    1  UNL1        0.0146
      4 C          61.9550   93.4710    0.1429 C.ar    1  UNL1        0.0499
      5 C          63.3641   93.7724   -0.2739 C.ar    1  UNL1       -0.0068
      6 C          63.6594   94.1641   -1.6914 C.ar    1  UNL1       -0.0029
      7 C          64.2489   93.6010    0.9251 C.3     1  UNL1        0.0495
      8 C          63.3867   93.1937    2.0830 C.3     1  UNL1        0.1029
      9 N          61.9691   93.1133    1.5995 N.am    1  UNL1       -0.2583
     10 C          60.7750   92.7407    2.4274 C.2     1  UNL1        0.2338
     11 O          59.4117   92.7028    1.8030 O.2     1  UNL1       -0.2742
     12 C          62.4854   96.8089   -7.3129 C.3     1  UNL1        0.1319
     13 N          62.8132   95.8201   -6.2336 N.ar    1  UNL1       -0.3094
     14 C          62.2344   95.8010   -4.8500 C.ar    1  UNL1        0.0772
     15 C          62.8409   94.6459   -4.1098 C.ar    1  UNL1        0.0228
     16 C          63.7946   93.9512   -5.0359 C.ar    1  UNL1        0.0668
     17 C          64.6764   92.7516   -4.8536 C.ar    1  UNL1        0.1300
     18 N          64.6935   92.0258   -3.5409 N.pl3   1  UNL1       -0.3425
     19 N          65.5411   92.2776   -5.9839 N.ar    1  UNL1       -0.2094
     20 C          65.5240   93.0033   -7.2966 C.ar    1  UNL1        0.2014
     21 N          64.6422   94.2030   -7.4789 N.ar    1  UNL1       -0.2065
     22 C          63.7775   94.6769   -6.3486 C.ar    1  UNL1        0.1483
     23 H          64.1260   92.3369   -2.7991 H       1  UNL1        0.1437
     24 H          65.2723   91.2385   -3.4213 H       1  UNL1        0.1437
     25 C          60.9443   92.4059    3.8798 C.3     1  UNL1        0.1119
     26 C          59.8691   91.6534    4.6063 C.ar    1  UNL1       -0.0131
     27 C          58.4259   91.9601    4.3366 C.ar    1  UNL1       -0.0038
     28 C          57.3507   91.2075    5.0630 C.ar    1  UNL1       -0.0004
     29 C          57.7188   90.1483    6.0591 C.ar    1  UNL1        0.0038
     30 C          59.1621   89.8416    6.3289 C.ar    1  UNL1        0.0711
     31 C          60.2373   90.5941    5.6025 C.ar    1  UNL1        0.0001
     32 C          59.5303   88.7823    7.3251 C.3     1  UNL1        0.4186
     33 F          59.8985   87.7230    8.3213 F       1  UNL1       -0.1659
     34 F          59.0621   87.7230    6.3718 F       1  UNL1       -0.1659
     35 F          59.9985   89.8416    8.2784 F       1  UNL1       -0.1659
@<TRIPOS>BOND
     1    12    13    1
     2    13    14   ar
     3    14    15   ar
     4    15     1    1
     5     1     2   ar
     6     2     3   ar
     7     3     4   ar
     8     4     5   ar
     9     5     6   ar
    10     5     7    1
    11     7     8    1
    12     8     9    1
    13     9    10   am
    14    10    11    2
    15    10    25    1
    16    25    26    1
    17    26    27   ar
    18    27    28   ar
    19    28    29   ar
    20    29    30   ar
    21    30    32    1
    22    32    33    1
    23    32    34    1
    24    32    35    1
    25    30    31   ar
    26    15    16   ar
    27    16    17   ar
    28    17    18    1
    29    17    19   ar
    30    19    20   ar
    31    20    21   ar
    32    21    22   ar
    33    22    13   ar
    34     6     1   ar
    35    31    26   ar
    36    22    16   ar
    37     9     4    1
    38    18    23    1
    39    18    24    1
@<TRIPOS>MOLECULE
*****
 35 39 0 0 0
SMALL
GASTEIGER

@<TRIPOS>ATOM
      1 C          65.0929   90.1874   13.9082 C.ar    1  UNL1        0.0014
      2 C          65.3514   89.1116   14.9210 C.ar    1  UNL1        0.0013
      3 C          64.7124   87.7637   14.7632 C.ar    1  UNL1        0.0146
      4 C          63.8150   87.4915   13.5925 C.ar    1  UNL1        0.0499
      5 C          63.5565   88.5673   12.5797 C.ar    1  UNL1       -0.0068
      6 C          64.1954   89.9152   12.7375 C.ar    1  UNL1       -0.0029
      7 C          62.6330   88.0101   11.5372 C.3     1  UNL1        0.0495
      8 C          62.3207   86.5900   11.9058 C.3     1  UNL1        0.1029
      9 N          63.0513   86.2696   13.1760 N.am    1  UNL1       -0.2583
     10 C          63.0230   84.9574   13.9023 C.2     1  UNL1        0.2338
     11 O          63.8087   84.7838   15.1683 O.2     1  UNL1       -0.2742
     12 C          67.7443   94.2825   15.9282 C.3     1  UNL1        0.1319
     13 N          66.9505   93.4176   14.9945 N.ar    1  UNL1       -0.3094
     14 C          66.4885   92.0170   15.2682 C.ar    1  UNL1        0.0772
     15 C          65.7318   91.5353   14.0660 C.ar    1  UNL1        0.0228
     16 C          65.7263   92.6381   13.0492 C.ar    1  UNL1        0.0668
     17 C          65.1327   92.7332   11.6750 C.ar    1  UNL1        0.1300
     18 N          64.3795   91.5698   11.1011 N.pl3   1  UNL1       -0.3425
     19 N          65.2923   93.9917   10.8746 N.ar    1  UNL1       -0.2094
     20 C          66.0455   95.1550   11.4484 C.ar    1  UNL1        0.2014
     21 N          66.6391   95.0599   12.8227 N.ar    1  UNL1       -0.2065
     22 C          66.4795   93.8014   13.6230 C.ar    1  UNL1        0.1483
     23 H          64.2747   90.7438   11.6265 H       1  UNL1        0.1437
     24 H          63.9899   91.6323   10.1992 H       1  UNL1        0.1437
     25 C          62.2091   83.8188   13.3626 C.3     1  UNL1        0.1119
     26 C          62.7199   83.0148   12.2040 C.ar    1  UNL1       -0.0131
     27 C          63.4944   83.6859   11.1088 C.ar    1  UNL1       -0.0038
     28 C          64.0052   82.8818    9.9501 C.ar    1  UNL1       -0.0004
     29 C          63.7414   81.4067    9.8866 C.ar    1  UNL1        0.0038
     30 C          62.9668   80.7354   10.9818 C.ar    1  UNL1        0.0711
     31 C          62.4560   81.5395   12.1405 C.ar    1  UNL1        0.0001
     32 C          62.7030   79.2602   10.9183 C.3     1  UNL1        0.4186
     33 F          62.4392   77.7849   10.8548 F       1  UNL1       -0.1659
     34 F          62.9828   79.2736    9.4446 F       1  UNL1       -0.1659
     35 F          62.4233   79.2468   12.3919 F       1  UNL1       -0.1659
@<TRIPOS>BOND
     1    12    13    1
     2    13    14   ar
     3    14    15   ar
     4    15     1    1
     5     1     2   ar
     6     2     3   ar
     7     3     4   ar
     8     4     5   ar
     9     5     6   ar
    10     5     7    1
    11     7     8    1
    12     8     9    1
    13     9    10   am
    14    10    11    2
    15    10    25    1
    16    25    26    1
    17    26    27   ar
    18    27    28   ar
    19    28    29   ar
    20    29    30   ar
    21    30    32    1
    22    32    33    1
    23    32    34    1
    24    32    35    1
    25    30    31   ar
    26    15    16   ar
    27    16    17   ar
    28    17    18    1
    29    17    19   ar
    30    19    20   ar
    31    20    21   ar
    32    21    22   ar
    33    22    13   ar
    34     6     1   ar
    35    31    26   ar
    36    22    16   ar
    37     9     4    1
    38    18    23    1
    39    18    24    1
