@<TRIPOS>MOLECULE
*****
 61 67 0 0 0
SMALL
GASTEIGER

@<TRIPOS>ATOM
      1 C          59.2481   91.4527    4.3868 C.ar    1  UNL1        0.0295
      2 C          57.8705   91.2874    4.9569 C.ar    1  UNL1        0.0070
      3 C          57.9642   90.3645    6.1357 C.ar    1  UNL1        0.0075
      4 C          59.3998   89.9594    6.2942 C.ar    1  UNL1        0.0354
      5 S          60.1933   90.6319    5.2134 S.2     1  UNL1       -0.0864
      6 C          59.9459   89.0428    7.3484 C.2     1  UNL1        0.0390
      7 C          60.2441   87.5825    7.1787 C.2     1  UNL1        0.0542
      8 C          60.7723   87.0627    8.4829 C.2     1  UNL1        0.2309
      9 N          61.2830   85.8390    9.1841 N.2     1  UNL1       -0.0364
     10 C          61.6268   86.2216   10.5931 C.2     1  UNL1        0.3653
     11 N          61.3286   87.6819   10.7628 N.2     1  UNL1       -0.0462
     12 C          60.8005   88.2017    9.4586 C.3     1  UNL1        0.3308
     13 S          60.2898   89.4254    8.7574 S.3     1  UNL1       -0.0533
     14 C          62.1730   85.3050   11.6474 C.3     1  UNL1        0.1874
     15 C          62.0067   83.8149   11.6924 C.3     1  UNL1        0.0344
     16 C          62.7122   83.3065   12.9146 C.3     1  UNL1        0.0221
     17 C          62.8000   81.8738   13.3500 C.3     1  UNL1        0.0018
     18 C          63.3146   84.4823   13.6249 C.3     1  UNL1        0.0940
     19 N          62.9813   85.7175   12.8417 N.am    1  UNL1       -0.2691
     20 C          63.3854   87.1190   13.1915 C.2     1  UNL1        0.2440
     21 O          62.9764   88.2601   12.3079 O.2     1  UNL1       -0.2731
     22 C          64.1985   87.3795   14.4248 C.3     1  UNL1        0.1512
     23 N          64.6277   88.7774   14.7587 N.am    1  UNL1       -0.2640
     24 C          63.7107   89.6794   15.5307 C.2     1  UNL1        0.4021
     25 O          62.3646   89.1833   15.9686 O.2     1  UNL1       -0.2264
     26 H          65.5113   89.1030   14.4713 H       1  UNL1        0.1532
     27 O          64.1401   91.0773   15.8646 O.3     1  UNL1       -0.4306
     28 C          65.2908   91.7032   15.1336 C.3     1  UNL1        0.2573
     29 C          64.5823   86.2420   15.3242 C.3     1  UNL1        0.0270
     30 C          65.7407   85.3594   14.9645 C.3     1  UNL1        0.0022
     31 C          63.8078   85.9871   16.5832 C.3     1  UNL1        0.0022
     32 C          60.3517   93.9690    0.8231 C.ar    1  UNL1        0.0172
     33 C          59.0200   93.2804    0.8716 C.ar    1  UNL1        0.0015
     34 C          58.6521   92.4416    2.0595 C.ar    1  UNL1        0.0005
     35 C          59.6159   92.2914    3.1990 C.ar    1  UNL1        0.0060
     36 C          60.9477   92.9801    3.1505 C.ar    1  UNL1        0.0005
     37 C          61.3156   93.8188    1.9627 C.ar    1  UNL1        0.0015
     38 C          61.1116   95.5289   -2.6488 C.ar    1  UNL1        0.1353
     39 N          61.4598   96.6679   -1.7369 N.ar    1  UNL1       -0.2279
     40 C          61.2174   96.2221   -0.3253 C.ar    1  UNL1        0.1171
     41 C          60.7196   94.8077   -0.3648 C.ar    1  UNL1        0.0769
     42 N          60.6542   94.3793   -1.8009 N.ar    1  UNL1       -0.3394
     43 H          60.3622   93.4982   -2.1292 H       1  UNL1        0.1671
     44 C          58.6688   94.9233   -4.7263 C.2     1  UNL1        0.2439
     45 O          58.2751   94.8414   -3.2811 O.2     1  UNL1       -0.2731
     46 N          60.0818   95.2597   -5.1008 N.am    1  UNL1       -0.2730
     47 C          60.6201   95.3768   -6.4960 C.3     1  UNL1        0.0938
     48 C          62.0756   95.7275   -6.4034 C.3     1  UNL1        0.0220
     49 C          63.0064   95.9411   -7.5601 C.3     1  UNL1        0.0018
     50 C          62.4368   95.8272   -4.9510 C.3     1  UNL1        0.0293
     51 C          61.2046   95.5381   -4.1459 C.3     1  UNL1        0.1319
     52 C          57.6495   94.6687   -5.7969 C.3     1  UNL1        0.1512
     53 C          56.9835   92.1750   -6.0931 C.2     1  UNL1        0.4021
     54 O          56.2223   92.2249   -4.8016 O.2     1  UNL1       -0.2264
     55 N          57.6971   93.3969   -6.5907 N.am    1  UNL1       -0.2640
     56 H          58.1968   93.3642   -7.4384 H       1  UNL1        0.1532
     57 C          55.7921   90.3927   -7.5606 C.3     1  UNL1        0.2573
     58 O          57.0312   90.9032   -6.8870 O.3     1  UNL1       -0.4306
     59 C          56.5825   95.6861   -6.0735 C.3     1  UNL1        0.0270
     60 C          55.2249   95.5366   -5.4532 C.3     1  UNL1        0.0022
     61 C          56.8729   96.8528   -6.9703 C.3     1  UNL1        0.0022
@<TRIPOS>BOND
     1    57    58    1
     2    58    53    1
     3    53    54    2
     4    53    55   am
     5    52    55    1
     6    52    44    1
     7    44    45    2
     8    44    46   am
     9    46    47    1
    10    47    48    1
    11    48    49    1
    12    48    50    1
    13    50    51    1
    14    51    38    1
    15    38    39   ar
    16    39    40   ar
    17    40    41   ar
    18    41    32    1
    19    32    33   ar
    20    33    34   ar
    21    34    35   ar
    22    35     1    1
    23     1     2   ar
    24     2     3   ar
    25     3     4   ar
    26     4     6    1
    27     6     7    2
    28     7     8    1
    29     8     9    2
    30     9    10    1
    31    14    10    1
    32    14    15    1
    33    15    16    1
    34    16    17    1
    35    16    18    1
    36    18    19    1
    37    19    20   am
    38    20    21    2
    39    20    22    1
    40    22    23    1
    41    23    24   am
    42    24    25    2
    43    24    27    1
    44    27    28    1
    45    22    29    1
    46    29    30    1
    47    29    31    1
    48    10    11    2
    49    11    12    1
    50    12    13    1
    51     4     5   ar
    52    35    36   ar
    53    36    37   ar
    54    41    42   ar
    55    52    59    1
    56    59    60    1
    57    59    61    1
    58    51    46    1
    59    42    38   ar
    60    37    32   ar
    61     5     1   ar
    62    13     6    1
    63    12     8    1
    64    19    14    1
    65    55    56    1
    66    23    26    1
    67    42    43    1
@<TRIPOS>MOLECULE
*****
 61 67 0 0 0
SMALL
GASTEIGER

@<TRIPOS>ATOM
      1 C          59.4017   90.6009    5.6722 C.ar    1  UNL1        0.0295
      2 C          58.0378   91.2189    5.5822 C.ar    1  UNL1        0.0070
      3 C          57.9840   92.0430    4.3301 C.ar    1  UNL1        0.0075
      4 C          59.3145   91.9344    3.6461 C.ar    1  UNL1        0.0354
      5 S          60.1908   91.0432    4.4755 S.2     1  UNL1       -0.0864
      6 C          59.7010   92.6001    2.3587 C.2     1  UNL1        0.0390
      7 C          59.9553   91.9105    1.0511 C.2     1  UNL1        0.0542
      8 C          60.3125   92.9566    0.0372 C.2     1  UNL1        0.2309
      9 N          60.6904   93.1769   -1.3976 N.2     1  UNL1       -0.0364
     10 C          60.8904   94.6492   -1.6035 C.2     1  UNL1        0.3653
     11 N          60.6361   95.3388   -0.2959 N.2     1  UNL1       -0.0462
     12 C          60.2789   94.2927    0.7181 C.3     1  UNL1        0.3308
     13 S          59.9010   94.0724    2.1529 S.3     1  UNL1       -0.0533
     14 C          61.2768   95.3150   -2.8908 C.3     1  UNL1        0.1874
     15 C          62.6686   95.6897   -3.3066 C.3     1  UNL1        0.0344
     16 C          62.5913   96.3293   -4.6612 C.3     1  UNL1        0.0221
     17 C          63.7500   96.8558   -5.4550 C.3     1  UNL1        0.0018
     18 C          61.1519   96.3498   -5.0827 C.3     1  UNL1        0.0940
     19 N          60.3395   95.7229   -3.9886 N.am    1  UNL1       -0.2691
     20 C          58.8511   95.5367   -3.9916 C.2     1  UNL1        0.2440
     21 O          58.1738   94.8897   -2.8200 O.2     1  UNL1       -0.2731
     22 C          58.0400   95.9974   -5.1662 C.3     1  UNL1        0.1512
     23 N          56.7781   96.7779   -4.9465 N.am    1  UNL1       -0.2640
     24 C          55.4540   96.0731   -4.9274 C.2     1  UNL1        0.4021
     25 O          55.3920   94.5879   -5.1281 O.2     1  UNL1       -0.2264
     26 H          56.8188   97.7527   -4.8147 H       1  UNL1        0.1532
     27 O          54.1921   96.8537   -4.7076 O.3     1  UNL1       -0.4306
     28 C          52.8591   96.2019   -4.9280 C.3     1  UNL1        0.2573
     29 C          58.4909   95.6777   -6.5608 C.3     1  UNL1        0.0270
     30 C          58.9295   96.7801   -7.4785 C.3     1  UNL1        0.0022
     31 C          58.5031   94.2555   -7.0375 C.3     1  UNL1        0.0022
     32 C          60.8687   87.8956    8.9553 C.ar    1  UNL1        0.0172
     33 C          61.0713   89.3782    9.0585 C.ar    1  UNL1        0.0015
     34 C          60.5824   90.2800    7.9641 C.ar    1  UNL1        0.0005
     35 C          59.8907   89.6992    6.7665 C.ar    1  UNL1        0.0060
     36 C          59.6880   88.2165    6.6634 C.ar    1  UNL1        0.0005
     37 C          60.1769   87.3147    7.7577 C.ar    1  UNL1        0.0015
     38 C          62.4765   86.1820   12.0446 C.ar    1  UNL1        0.1353
     39 N          61.7437   85.0301   11.4230 N.ar    1  UNL1       -0.2279
     40 C          61.0522   85.5319   10.1900 C.ar    1  UNL1        0.1171
     41 C          61.3577   86.9938   10.0497 C.ar    1  UNL1        0.0769
     42 N          62.2379   87.3955   11.1959 N.ar    1  UNL1       -0.3394
     43 H          62.5962   88.2974   11.3620 H       1  UNL1        0.1671
     44 C          63.7237   88.7479   13.6290 C.2     1  UNL1        0.2439
     45 O          62.9379   89.1105   12.4038 O.2     1  UNL1       -0.2731
     46 N          63.8761   87.3087   14.0236 N.am    1  UNL1       -0.2730
     47 C          64.6285   86.7963   15.2158 C.3     1  UNL1        0.0938
     48 C          64.5203   85.3003   15.2244 C.3     1  UNL1        0.0220
     49 C          65.1252   84.3783   16.2413 C.3     1  UNL1        0.0018
     50 C          63.7010   84.8881   14.0375 C.3     1  UNL1        0.0293
     51 C          63.3028   86.1293   13.2954 C.3     1  UNL1        0.1319
     52 C          64.3571   89.8244   14.4596 C.3     1  UNL1        0.1512
     53 C          65.3823   91.7311   13.0231 C.2     1  UNL1        0.4021
     54 O          64.0052   92.1658   12.6174 O.2     1  UNL1       -0.2264
     55 N          65.5582   90.5604   13.9443 N.am    1  UNL1       -0.2640
     56 H          66.4620   90.2750   14.2107 H       1  UNL1        0.1532
     57 C          66.9565   92.3717   11.0582 C.3     1  UNL1        0.2573
     58 O          66.5835   92.4670   12.5078 O.3     1  UNL1       -0.4306
     59 C          63.7891   90.1650   15.8056 C.3     1  UNL1        0.0270
     60 C          64.1485   91.4638   16.4643 C.3     1  UNL1        0.0022
     61 C          62.8620   89.2068   16.4927 C.3     1  UNL1        0.0022
@<TRIPOS>BOND
     1    57    58    1
     2    58    53    1
     3    53    54    2
     4    53    55   am
     5    52    55    1
     6    52    44    1
     7    44    45    2
     8    44    46   am
     9    46    47    1
    10    47    48    1
    11    48    49    1
    12    48    50    1
    13    50    51    1
    14    51    38    1
    15    38    39   ar
    16    39    40   ar
    17    40    41   ar
    18    41    32    1
    19    32    33   ar
    20    33    34   ar
    21    34    35   ar
    22    35     1    1
    23     1     2   ar
    24     2     3   ar
    25     3     4   ar
    26     4     6    1
    27     6     7    2
    28     7     8    1
    29     8     9    2
    30     9    10    1
    31    14    10    1
    32    14    15    1
    33    15    16    1
    34    16    17    1
    35    16    18    1
    36    18    19    1
    37    19    20   am
    38    20    21    2
    39    20    22    1
    40    22    23    1
    41    23    24   am
    42    24    25    2
    43    24    27    1
    44    27    28    1
    45    22    29    1
    46    29    30    1
    47    29    31    1
    48    10    11    2
    49    11    12    1
    50    12    13    1
    51     4     5   ar
    52    35    36   ar
    53    36    37   ar
    54    41    42   ar
    55    52    59    1
    56    59    60    1
    57    59    61    1
    58    51    46    1
    59    42    38   ar
    60    37    32   ar
    61     5     1   ar
    62    13     6    1
    63    12     8    1
    64    19    14    1
    65    55    56    1
    66    23    26    1
    67    42    43    1
@<TRIPOS>MOLECULE
*****
 61 67 0 0 0
SMALL
GASTEIGER

@<TRIPOS>ATOM
      1 C          59.7420   91.0398    4.9367 C.ar    1  UNL1        0.0295
      2 C          58.3626   90.8153    5.4815 C.ar    1  UNL1        0.0070
      3 C          58.4884   90.0289    6.7526 C.ar    1  UNL1        0.0075
      4 C          59.9457   89.7673    6.9934 C.ar    1  UNL1        0.0354
      5 S          60.7205   90.3921    5.8712 S.2     1  UNL1       -0.0864
      6 C          60.5262   89.0133    8.1529 C.2     1  UNL1        0.0390
      7 C          60.3252   87.5562    8.4467 C.2     1  UNL1        0.0542
      8 C          61.0844   87.2265    9.6976 C.2     1  UNL1        0.2309
      9 N          61.4295   86.1221   10.6522 N.2     1  UNL1       -0.0364
     10 C          62.3130   86.6929   11.7217 C.2     1  UNL1        0.3653
     11 N          62.5140   88.1501   11.4279 N.2     1  UNL1       -0.0462
     12 C          61.7547   88.4798   10.1770 C.3     1  UNL1        0.3308
     13 S          61.4097   89.5842    9.2223 S.3     1  UNL1       -0.0533
     14 C          62.8935   85.9390   12.8811 C.3     1  UNL1        0.1874
     15 C          63.3749   86.5373   14.1697 C.3     1  UNL1        0.0344
     16 C          63.8735   85.4225   15.0407 C.3     1  UNL1        0.0221
     17 C          64.4451   85.5691   16.4197 C.3     1  UNL1        0.0018
     18 C          63.7002   84.1352   14.2904 C.3     1  UNL1        0.0940
     19 N          63.0945   84.4544   12.9558 N.am    1  UNL1       -0.2691
     20 C          62.7503   83.4631   11.8840 C.2     1  UNL1        0.2440
     21 O          62.1464   83.9330   10.5938 O.2     1  UNL1       -0.2731
     22 C          63.0100   82.0020   12.1023 C.3     1  UNL1        0.1512
     23 N          63.2889   81.1067   10.9316 N.am    1  UNL1       -0.2640
     24 C          62.8528   79.6717   10.9642 C.2     1  UNL1        0.4021
     25 O          62.1379   79.1322   12.1674 O.2     1  UNL1       -0.2264
     26 H          63.7581   81.4607   10.1418 H       1  UNL1        0.1532
     27 O          63.1318   78.7764    9.7934 O.3     1  UNL1       -0.4306
     28 C          63.2629   77.2959    9.9960 C.3     1  UNL1        0.2573
     29 C          62.9908   81.4362   13.4914 C.3     1  UNL1        0.0270
     30 C          64.2489   80.8849   14.0942 C.3     1  UNL1        0.0022
     31 C          61.7135   81.4216   14.2777 C.3     1  UNL1        0.0022
     32 C          60.7654   93.2655    1.1620 C.ar    1  UNL1        0.0172
     33 C          59.3373   93.1639    1.6089 C.ar    1  UNL1        0.0015
     34 C          58.9961   92.4220    2.8672 C.ar    1  UNL1        0.0005
     35 C          60.0832   91.7817    3.6785 C.ar    1  UNL1        0.0060
     36 C          61.5115   91.8833    3.2315 C.ar    1  UNL1        0.0005
     37 C          61.8526   92.6252    1.9733 C.ar    1  UNL1        0.0015
     38 C          61.3087   94.6079   -2.4392 C.ar    1  UNL1        0.1353
     39 N          61.9545   95.6903   -1.6259 N.ar    1  UNL1       -0.2279
     40 C          61.8295   95.3192   -0.1779 C.ar    1  UNL1        0.1171
     41 C          61.1066   94.0074   -0.0963 C.ar    1  UNL1        0.0769
     42 N          60.7847   93.5678   -1.4938 N.ar    1  UNL1       -0.3394
     43 H          60.3124   92.7417   -1.7463 H       1  UNL1        0.1671
     44 C          58.5427   94.6003   -4.1709 C.2     1  UNL1        0.2439
     45 O          58.3328   94.6401   -2.6861 O.2     1  UNL1       -0.2731
     46 N          59.9338   94.5684   -4.7311 N.am    1  UNL1       -0.2730
     47 C          60.2978   94.5274   -6.1857 C.3     1  UNL1        0.0938
     48 C          61.7941   94.5055   -6.2888 C.3     1  UNL1        0.0220
     49 C          62.5898   94.4636   -7.5596 C.3     1  UNL1        0.0018
     50 C          62.3548   94.5330   -4.8978 C.3     1  UNL1        0.0293
     51 C          61.2052   94.5719   -3.9351 C.3     1  UNL1        0.1319
     52 C          57.3615   94.5925   -5.0954 C.3     1  UNL1        0.1512
     53 C          56.1857   92.2772   -5.0108 C.2     1  UNL1        0.4021
     54 O          55.8367   92.5072   -3.5702 O.2     1  UNL1       -0.2264
     55 N          56.9481   93.3199   -5.7734 N.am    1  UNL1       -0.2640
     56 H          57.1772   93.1690   -6.7189 H       1  UNL1        0.1532
     57 C          55.4975   90.9955   -7.1633 C.3     1  UNL1        0.2573
     58 O          55.7723   91.0047   -5.6888 O.3     1  UNL1       -0.4306
     59 C          56.5937   95.8573   -5.3418 C.3     1  UNL1        0.0270
     60 C          55.3260   96.1244   -4.5857 C.3     1  UNL1        0.0022
     61 C          57.0934   96.8550   -6.3443 C.3     1  UNL1        0.0022
@<TRIPOS>BOND
     1    57    58    1
     2    58    53    1
     3    53    54    2
     4    53    55   am
     5    52    55    1
     6    52    44    1
     7    44    45    2
     8    44    46   am
     9    46    47    1
    10    47    48    1
    11    48    49    1
    12    48    50    1
    13    50    51    1
    14    51    38    1
    15    38    39   ar
    16    39    40   ar
    17    40    41   ar
    18    41    32    1
    19    32    33   ar
    20    33    34   ar
    21    34    35   ar
    22    35     1    1
    23     1     2   ar
    24     2     3   ar
    25     3     4   ar
    26     4     6    1
    27     6     7    2
    28     7     8    1
    29     8     9    2
    30     9    10    1
    31    14    10    1
    32    14    15    1
    33    15    16    1
    34    16    17    1
    35    16    18    1
    36    18    19    1
    37    19    20   am
    38    20    21    2
    39    20    22    1
    40    22    23    1
    41    23    24   am
    42    24    25    2
    43    24    27    1
    44    27    28    1
    45    22    29    1
    46    29    30    1
    47    29    31    1
    48    10    11    2
    49    11    12    1
    50    12    13    1
    51     4     5   ar
    52    35    36   ar
    53    36    37   ar
    54    41    42   ar
    55    52    59    1
    56    59    60    1
    57    59    61    1
    58    51    46    1
    59    42    38   ar
    60    37    32   ar
    61     5     1   ar
    62    13     6    1
    63    12     8    1
    64    19    14    1
    65    55    56    1
    66    23    26    1
    67    42    43    1
