@<TRIPOS>MOLECULE
*****
 26 29 0 0 0
SMALL
GASTEIGER

@<TRIPOS>ATOM
      1 C          63.3925   88.3468   16.0009 C.ar    1  UNL1        0.2595
      2 N          64.1885   87.5518   15.0089 N.ar    1  UNL1       -0.1932
      3 C          64.0089   86.0975   15.3295 C.ar    1  UNL1        0.1809
      4 N          63.1018   85.9938   16.5197 N.ar    1  UNL1       -0.0605
      5 O          62.7209   87.3840   16.9347 O.2     1  UNL1       -0.3353
      6 C          63.2867   89.8423   16.0506 C.3     1  UNL1        0.1984
      7 C          63.0333   90.9550   10.2635 C.3     1  UNL1        0.1322
      8 N          64.0737   91.6448   11.0952 N.ar    1  UNL1       -0.3020
      9 C          65.0949   92.6235   10.5961 C.ar    1  UNL1        0.1803
     10 N          65.9280   93.0606   11.7644 N.ar    1  UNL1       -0.2047
     11 C          65.4216   92.3520   12.9856 C.ar    1  UNL1        0.1861
     12 N          65.8559   92.3904   14.4209 N.ar    1  UNL1       -0.2046
     13 C          65.1443   91.5538   15.4425 C.ar    1  UNL1        0.1828
     14 N          63.9984   90.6789   15.0289 N.ar    1  UNL1       -0.2675
     15 C          63.5640   90.6404   13.5936 C.ar    1  UNL1        0.2814
     16 O          62.4179   89.7653   13.1801 O.2     1  UNL1       -0.2652
     17 C          64.2756   91.4770   12.5720 C.ar    1  UNL1        0.1543
     18 C          64.6277   84.9486   14.5898 C.3     1  UNL1        0.0739
     19 C          63.7606   84.0023   13.8133 C.3     1  UNL1        0.0344
     20 C          63.5441   84.2171   12.3447 C.ar    1  UNL1       -0.0217
     21 C          64.2060   83.3116   11.3487 C.ar    1  UNL1       -0.0034
     22 C          63.9894   83.5264    9.8800 C.ar    1  UNL1        0.0111
     23 C          63.1110   84.6466    9.4073 C.ar    1  UNL1        0.0577
     24 CL         62.8944   84.8614    7.9387 Cl      1  UNL1       -0.0822
     25 C          62.4491   85.5521   10.4034 C.ar    1  UNL1        0.0111
     26 C          62.6656   85.3373   11.8720 C.ar    1  UNL1       -0.0034
@<TRIPOS>BOND
     1     7     8    1
     2     8     9   ar
     3     9    10   ar
     4    10    11   ar
     5    11    12   ar
     6    12    13   ar
     7    13    14   ar
     8    14     6    1
     9     6     1    1
    10     1     2   ar
    11     2     3   ar
    12     3    18    1
    13    18    19    1
    14    19    20    1
    15    20    21   ar
    16    21    22   ar
    17    22    23   ar
    18    23    24    1
    19    23    25   ar
    20    25    26   ar
    21     3     4   ar
    22     4     5   ar
    23    14    15   ar
    24    15    16    2
    25    15    17   ar
    26    17     8   ar
    27    17    11   ar
    28     5     1   ar
    29    26    20   ar
@<TRIPOS>MOLECULE
*****
 26 29 0 0 0
SMALL
GASTEIGER

@<TRIPOS>ATOM
      1 C          63.4499   88.3574   15.9821 C.ar    1  UNL1        0.2595
      2 N          64.1683   87.5580   14.9359 N.ar    1  UNL1       -0.1932
      3 C          64.1406   86.1174   15.3531 C.ar    1  UNL1        0.1809
      4 N          63.4050   86.0266   16.6572 N.ar    1  UNL1       -0.0605
      5 O          62.9781   87.4110   17.0459 O.2     1  UNL1       -0.3353
      6 C          63.2401   89.8426   15.9672 C.3     1  UNL1        0.1984
      7 C          63.0718   91.0657   10.1993 C.3     1  UNL1        0.1322
      8 N          64.1055   91.7326   11.0576 N.ar    1  UNL1       -0.3020
      9 C          65.1399   92.7135   10.5907 C.ar    1  UNL1        0.1803
     10 N          65.9600   93.1227   11.7781 N.ar    1  UNL1       -0.2047
     11 C          65.4326   92.3947   12.9789 C.ar    1  UNL1        0.1861
     12 N          65.8479   92.4032   14.4202 N.ar    1  UNL1       -0.2046
     13 C          65.1170   91.5524   15.4163 C.ar    1  UNL1        0.1828
     14 N          63.9710   90.6933   14.9710 N.ar    1  UNL1       -0.2675
     15 C          63.5556   90.6849   13.5296 C.ar    1  UNL1        0.2814
     16 O          62.4095   89.8257   13.0844 O.2     1  UNL1       -0.2652
     17 C          64.2865   91.5356   12.5336 C.ar    1  UNL1        0.1543
     18 C          64.7427   84.9692   14.5986 C.3     1  UNL1        0.0739
     19 C          64.1968   83.5839   14.7800 C.3     1  UNL1        0.0344
     20 C          63.8644   82.7459   13.5812 C.ar    1  UNL1       -0.0217
     21 C          63.0911   81.4715   13.7482 C.ar    1  UNL1       -0.0034
     22 C          62.7587   80.6333   12.5493 C.ar    1  UNL1        0.0111
     23 C          63.1996   81.0696   11.1836 C.ar    1  UNL1        0.0577
     24 CL         62.8672   80.2316    9.9847 Cl      1  UNL1       -0.0822
     25 C          63.9729   82.3441   11.0167 C.ar    1  UNL1        0.0111
     26 C          64.3053   83.1822   12.2155 C.ar    1  UNL1       -0.0034
@<TRIPOS>BOND
     1     7     8    1
     2     8     9   ar
     3     9    10   ar
     4    10    11   ar
     5    11    12   ar
     6    12    13   ar
     7    13    14   ar
     8    14     6    1
     9     6     1    1
    10     1     2   ar
    11     2     3   ar
    12     3    18    1
    13    18    19    1
    14    19    20    1
    15    20    21   ar
    16    21    22   ar
    17    22    23   ar
    18    23    24    1
    19    23    25   ar
    20    25    26   ar
    21     3     4   ar
    22     4     5   ar
    23    14    15   ar
    24    15    16    2
    25    15    17   ar
    26    17     8   ar
    27    17    11   ar
    28     5     1   ar
    29    26    20   ar
@<TRIPOS>MOLECULE
*****
 26 29 0 0 0
SMALL
GASTEIGER

@<TRIPOS>ATOM
      1 C          61.3335   89.1973   10.7833 C.ar    1  UNL1        0.2595
      2 N          61.9810   87.8790   10.4790 N.ar    1  UNL1       -0.1932
      3 C          61.3133   87.3038    9.2652 C.ar    1  UNL1        0.1809
      4 N          60.2530   88.2667    8.8194 N.ar    1  UNL1       -0.0605
      5 O          60.2655   89.4369    9.7576 O.2     1  UNL1       -0.3353
      6 C          61.6911   90.1149   11.9147 C.3     1  UNL1        0.1984
      7 C          65.8234   92.0803   15.6368 C.3     1  UNL1        0.1322
      8 N          65.9605   92.3734   14.1721 N.ar    1  UNL1       -0.3020
      9 C          67.0764   93.1408   13.5272 C.ar    1  UNL1        0.1803
     10 N          66.8114   93.1922   12.0516 N.ar    1  UNL1       -0.2047
     11 C          65.5317   92.4565   11.7846 C.ar    1  UNL1        0.1861
     12 N          64.7774   92.1820   10.5175 N.ar    1  UNL1       -0.2046
     13 C          63.4972   91.4015   10.5609 C.ar    1  UNL1        0.1828
     14 N          62.9714   90.8955   11.8713 N.ar    1  UNL1       -0.2675
     15 C          63.7257   91.1700   13.1385 C.ar    1  UNL1        0.2814
     16 O          63.1998   90.6639   14.4490 O.2     1  UNL1       -0.2652
     17 C          65.0059   91.9505   13.0951 C.ar    1  UNL1        0.1543
     18 C          61.6471   85.9954    8.6119 C.3     1  UNL1        0.0739
     19 C          62.9884   85.3639    8.8402 C.3     1  UNL1        0.0344
     20 C          63.1939   84.4396   10.0035 C.ar    1  UNL1       -0.0217
     21 C          62.4879   84.6990   11.3013 C.ar    1  UNL1       -0.0034
     22 C          62.6934   83.7747   12.4648 C.ar    1  UNL1        0.0111
     23 C          63.6048   82.5910   12.3304 C.ar    1  UNL1        0.0577
     24 CL         63.8103   81.6667   13.4937 Cl      1  UNL1       -0.0822
     25 C          64.3108   82.3316   11.0325 C.ar    1  UNL1        0.0111
     26 C          64.1054   83.2559    9.8691 C.ar    1  UNL1       -0.0034
@<TRIPOS>BOND
     1     7     8    1
     2     8     9   ar
     3     9    10   ar
     4    10    11   ar
     5    11    12   ar
     6    12    13   ar
     7    13    14   ar
     8    14     6    1
     9     6     1    1
    10     1     2   ar
    11     2     3   ar
    12     3    18    1
    13    18    19    1
    14    19    20    1
    15    20    21   ar
    16    21    22   ar
    17    22    23   ar
    18    23    24    1
    19    23    25   ar
    20    25    26   ar
    21     3     4   ar
    22     4     5   ar
    23    14    15   ar
    24    15    16    2
    25    15    17   ar
    26    17     8   ar
    27    17    11   ar
    28     5     1   ar
    29    26    20   ar
@<TRIPOS>MOLECULE
*****
 26 29 0 0 0
SMALL
GASTEIGER

@<TRIPOS>ATOM
      1 C          61.4123   88.3824   10.7400 C.ar    1  UNL1        0.2595
      2 N          62.7384   88.9413   11.1627 N.ar    1  UNL1       -0.1932
      3 C          62.4845   90.0372   12.1549 C.ar    1  UNL1        0.1809
      4 N          61.0013   90.1555   12.3454 N.ar    1  UNL1       -0.0605
      5 O          60.3387   89.1328   11.4709 O.2     1  UNL1       -0.3353
      6 C          61.1974   87.2685    9.7586 C.3     1  UNL1        0.1984
      7 C          63.0610   83.3339   13.7383 C.3     1  UNL1        0.1322
      8 N          63.4990   83.1925   12.3107 N.ar    1  UNL1       -0.3020
      9 C          64.3930   82.1188   11.7649 C.ar    1  UNL1        0.1803
     10 N          64.5665   82.3627   10.2951 N.ar    1  UNL1       -0.2047
     11 C          63.7796   83.5872    9.9324 C.ar    1  UNL1        0.1861
     12 N          63.5786   84.3015    8.6288 N.ar    1  UNL1       -0.2046
     13 C          62.7179   85.5285    8.5709 C.ar    1  UNL1        0.1828
     14 N          62.0581   86.0413    9.8165 N.ar    1  UNL1       -0.2675
     15 C          62.2591   85.3271   11.1202 C.ar    1  UNL1        0.2814
     16 O          61.5993   85.8400   12.3659 O.2     1  UNL1       -0.2652
     17 C          63.1199   84.1000   11.1781 C.ar    1  UNL1        0.1543
     18 C          63.5301   90.8689   12.8369 C.3     1  UNL1        0.0739
     19 C          64.5420   90.2160   13.7313 C.3     1  UNL1        0.0344
     20 C          64.0984   89.2306   14.7715 C.ar    1  UNL1       -0.0217
     21 C          63.3766   89.7075   15.9969 C.ar    1  UNL1       -0.0034
     22 C          62.9329   88.7221   17.0373 C.ar    1  UNL1        0.0111
     23 C          63.2110   87.2598   16.8521 C.ar    1  UNL1        0.0577
     24 CL         62.7674   86.2744   17.8924 Cl      1  UNL1       -0.0822
     25 C          63.9327   86.7829   15.6267 C.ar    1  UNL1        0.0111
     26 C          64.3764   87.7682   14.5864 C.ar    1  UNL1       -0.0034
@<TRIPOS>BOND
     1     7     8    1
     2     8     9   ar
     3     9    10   ar
     4    10    11   ar
     5    11    12   ar
     6    12    13   ar
     7    13    14   ar
     8    14     6    1
     9     6     1    1
    10     1     2   ar
    11     2     3   ar
    12     3    18    1
    13    18    19    1
    14    19    20    1
    15    20    21   ar
    16    21    22   ar
    17    22    23   ar
    18    23    24    1
    19    23    25   ar
    20    25    26   ar
    21     3     4   ar
    22     4     5   ar
    23    14    15   ar
    24    15    16    2
    25    15    17   ar
    26    17     8   ar
    27    17    11   ar
    28     5     1   ar
    29    26    20   ar
@<TRIPOS>MOLECULE
*****
 26 29 0 0 0
SMALL
GASTEIGER

@<TRIPOS>ATOM
      1 C          62.0219   88.0319   10.8382 C.ar    1  UNL1        0.2595
      2 N          62.2343   86.8624   11.7530 N.ar    1  UNL1       -0.1932
      3 C          62.4418   85.6424   10.9053 C.ar    1  UNL1        0.1809
      4 N          62.3576   86.0581    9.4665 N.ar    1  UNL1       -0.0605
      5 O          62.0981   87.5348    9.4250 O.2     1  UNL1       -0.3353
      6 C          61.7764   89.4496   11.2621 C.3     1  UNL1        0.1984
      7 C          65.7643   93.7512   10.6414 C.3     1  UNL1        0.1322
      8 N          65.6112   93.0840   11.9761 N.ar    1  UNL1       -0.3020
      9 C          66.3915   93.4040   13.2165 C.ar    1  UNL1        0.1803
     10 N          65.9135   92.4974   14.3117 N.ar    1  UNL1       -0.2047
     11 C          64.8377   91.6170   13.7482 C.ar    1  UNL1        0.1861
     12 N          64.0041   90.5321   14.3630 N.ar    1  UNL1       -0.2046
     13 C          62.9837   89.8096   13.5343 C.ar    1  UNL1        0.1828
     14 N          62.7969   90.1721   12.0909 N.ar    1  UNL1       -0.2675
     15 C          63.6305   91.2571   11.4760 C.ar    1  UNL1        0.2814
     16 O          63.4436   91.6196   10.0325 O.2     1  UNL1       -0.2652
     17 C          64.6509   91.9795   12.3047 C.ar    1  UNL1        0.1543
     18 C          62.6899   84.2511   11.4081 C.3     1  UNL1        0.0739
     19 C          63.6978   84.0144   12.4934 C.3     1  UNL1        0.0344
     20 C          63.4897   84.6120   13.8534 C.ar    1  UNL1       -0.0217
     21 C          62.3973   84.0936   14.7411 C.ar    1  UNL1       -0.0034
     22 C          62.1890   84.6912   16.1012 C.ar    1  UNL1        0.0111
     23 C          63.0733   85.8070   16.5735 C.ar    1  UNL1        0.0577
     24 CL         62.8651   86.4045   17.9335 Cl      1  UNL1       -0.0822
     25 C          64.1657   86.3252   15.6858 C.ar    1  UNL1        0.0111
     26 C          64.3739   85.7278   14.3257 C.ar    1  UNL1       -0.0034
@<TRIPOS>BOND
     1     7     8    1
     2     8     9   ar
     3     9    10   ar
     4    10    11   ar
     5    11    12   ar
     6    12    13   ar
     7    13    14   ar
     8    14     6    1
     9     6     1    1
    10     1     2   ar
    11     2     3   ar
    12     3    18    1
    13    18    19    1
    14    19    20    1
    15    20    21   ar
    16    21    22   ar
    17    22    23   ar
    18    23    24    1
    19    23    25   ar
    20    25    26   ar
    21     3     4   ar
    22     4     5   ar
    23    14    15   ar
    24    15    16    2
    25    15    17   ar
    26    17     8   ar
    27    17    11   ar
    28     5     1   ar
    29    26    20   ar
@<TRIPOS>MOLECULE
*****
 26 29 0 0 0
SMALL
GASTEIGER

@<TRIPOS>ATOM
      1 C          61.5833   89.4329    9.6733 C.ar    1  UNL1        0.2595
      2 N          62.2807   88.1111    9.5463 N.ar    1  UNL1       -0.1932
      3 C          61.3060   87.1261    8.9721 C.ar    1  UNL1        0.1809
      4 N          60.0062   87.8392    8.7442 N.ar    1  UNL1       -0.0605
      5 O          60.1776   89.2650    9.1776 O.2     1  UNL1       -0.3353
      6 C          62.1858   90.7004   10.2031 C.3     1  UNL1        0.1984
      7 C          66.6649   93.2364   13.0838 C.3     1  UNL1        0.1322
      8 N          65.7389   92.3234   13.8315 N.ar    1  UNL1       -0.3020
      9 C          65.8319   91.9723   15.2868 C.ar    1  UNL1        0.1803
     10 N          64.7078   91.0331   15.6099 N.ar    1  UNL1       -0.2047
     11 C          63.9200   90.8038   14.3542 C.ar    1  UNL1        0.1861
     12 N          62.7047   89.9719   14.0696 N.ar    1  UNL1       -0.2046
     13 C          62.1267   89.9374   12.6859 C.ar    1  UNL1        0.1828
     14 N          62.7639   90.7348   11.5869 N.ar    1  UNL1       -0.2675
     15 C          63.9792   91.5668   11.8714 C.ar    1  UNL1        0.2814
     16 O          64.6164   92.3642   10.7722 O.2     1  UNL1       -0.2652
     17 C          64.5573   91.6013   13.2551 C.ar    1  UNL1        0.1543
     18 C          61.5825   85.6815    8.6775 C.3     1  UNL1        0.0739
     19 C          62.9401   85.1063    8.9535 C.3     1  UNL1        0.0344
     20 C          63.1868   84.3405   10.2195 C.ar    1  UNL1       -0.0217
     21 C          64.1144   83.1617   10.2142 C.ar    1  UNL1       -0.0034
     22 C          64.3612   82.3958   11.4802 C.ar    1  UNL1        0.0111
     23 C          63.6804   82.8088   12.7514 C.ar    1  UNL1        0.0577
     24 CL         63.9271   82.0431   14.0174 Cl      1  UNL1       -0.0822
     25 C          62.7529   83.9877   12.7566 C.ar    1  UNL1        0.0111
     26 C          62.5061   84.7536   11.4907 C.ar    1  UNL1       -0.0034
@<TRIPOS>BOND
     1     7     8    1
     2     8     9   ar
     3     9    10   ar
     4    10    11   ar
     5    11    12   ar
     6    12    13   ar
     7    13    14   ar
     8    14     6    1
     9     6     1    1
    10     1     2   ar
    11     2     3   ar
    12     3    18    1
    13    18    19    1
    14    19    20    1
    15    20    21   ar
    16    21    22   ar
    17    22    23   ar
    18    23    24    1
    19    23    25   ar
    20    25    26   ar
    21     3     4   ar
    22     4     5   ar
    23    14    15   ar
    24    15    16    2
    25    15    17   ar
    26    17     8   ar
    27    17    11   ar
    28     5     1   ar
    29    26    20   ar
@<TRIPOS>MOLECULE
*****
 26 29 0 0 0
SMALL
GASTEIGER

@<TRIPOS>ATOM
      1 C          64.0148   87.7183   14.2850 C.ar    1  UNL1        0.2595
      2 N          63.6558   88.2564   12.9317 N.ar    1  UNL1       -0.1932
      3 C          63.0134   89.5985   13.1221 C.ar    1  UNL1        0.1809
      4 N          62.9755   89.8897   14.5931 N.ar    1  UNL1       -0.0605
      5 O          63.5944   88.7277   15.3118 O.2     1  UNL1       -0.3353
      6 C          64.6779   86.4018   14.5627 C.3     1  UNL1        0.1984
      7 C          63.5059   81.7415   11.1421 C.3     1  UNL1        0.1322
      8 N          62.8638   81.8349   12.4945 N.ar    1  UNL1       -0.3020
      9 C          61.9207   80.8343   13.0938 C.ar    1  UNL1        0.1803
     10 N          61.5261   81.3263   14.4547 N.ar    1  UNL1       -0.2047
     11 C          62.2254   82.6311   14.6966 C.ar    1  UNL1        0.1861
     12 N          62.2162   83.5737   15.8634 N.ar    1  UNL1       -0.2046
     13 C          63.0337   84.8305   15.8188 C.ar    1  UNL1        0.1828
     14 N          63.8604   85.1448   14.6073 N.ar    1  UNL1       -0.2675
     15 C          63.8696   84.2023   13.4404 C.ar    1  UNL1        0.2814
     16 O          64.6964   84.5167   12.2289 O.2     1  UNL1       -0.2652
     17 C          63.0521   82.9455   13.4851 C.ar    1  UNL1        0.1543
     18 C          62.4992   90.4924   12.0328 C.3     1  UNL1        0.0739
     19 C          62.7917   90.1700   10.5973 C.3     1  UNL1        0.0344
     20 C          61.9355   89.1827    9.8611 C.ar    1  UNL1       -0.0217
     21 C          60.6785   89.6398    9.1822 C.ar    1  UNL1       -0.0034
     22 C          59.8221   88.6525    8.4458 C.ar    1  UNL1        0.0111
     23 C          60.2229   87.2082    8.3884 C.ar    1  UNL1        0.0577
     24 CL         59.3668   86.2209    7.6521 Cl      1  UNL1       -0.0822
     25 C          61.4800   86.7512    9.0673 C.ar    1  UNL1        0.0111
     26 C          62.3363   87.7384    9.8036 C.ar    1  UNL1       -0.0034
@<TRIPOS>BOND
     1     7     8    1
     2     8     9   ar
     3     9    10   ar
     4    10    11   ar
     5    11    12   ar
     6    12    13   ar
     7    13    14   ar
     8    14     6    1
     9     6     1    1
    10     1     2   ar
    11     2     3   ar
    12     3    18    1
    13    18    19    1
    14    19    20    1
    15    20    21   ar
    16    21    22   ar
    17    22    23   ar
    18    23    24    1
    19    23    25   ar
    20    25    26   ar
    21     3     4   ar
    22     4     5   ar
    23    14    15   ar
    24    15    16    2
    25    15    17   ar
    26    17     8   ar
    27    17    11   ar
    28     5     1   ar
    29    26    20   ar
@<TRIPOS>MOLECULE
*****
 26 29 0 0 0
SMALL
GASTEIGER

@<TRIPOS>ATOM
      1 C          63.5806   87.2225   16.1066 C.ar    1  UNL1        0.2595
      2 N          63.9549   88.0068   14.8841 N.ar    1  UNL1       -0.1932
      3 C          63.4382   89.4047   15.0541 C.ar    1  UNL1        0.1809
      4 N          62.7445   89.4843   16.3816 N.ar    1  UNL1       -0.0605
      5 O          62.8325   88.1355   17.0321 O.2     1  UNL1       -0.3353
      6 C          63.8985   85.7785   16.3592 C.3     1  UNL1        0.1984
      7 C          60.9655   81.1426   14.1916 C.3     1  UNL1        0.1322
      8 N          62.1992   81.6217   13.4856 N.ar    1  UNL1       -0.3020
      9 C          62.7901   81.0273   12.2416 C.ar    1  UNL1        0.1803
     10 N          64.0148   81.8175   11.8868 N.ar    1  UNL1       -0.2047
     11 C          64.1808   82.9002   12.9116 C.ar    1  UNL1        0.1861
     12 N          65.2087   83.9806   13.0727 N.ar    1  UNL1       -0.2046
     13 C          65.1146   84.9400   14.2219 C.ar    1  UNL1        0.1828
     14 N          63.9926   84.8190   15.2099 N.ar    1  UNL1       -0.2675
     15 C          62.9646   83.7385   15.0489 C.ar    1  UNL1        0.2814
     16 O          61.8426   83.6176   16.0370 O.2     1  UNL1       -0.2652
     17 C          63.0587   82.7791   13.8997 C.ar    1  UNL1        0.1543
     18 C          63.5888   90.5263   14.0693 C.3     1  UNL1        0.0739
     19 C          64.9103   90.7652   13.4010 C.3     1  UNL1        0.0344
     20 C          65.9752   91.5526   14.1050 C.ar    1  UNL1       -0.0217
     21 C          65.7241   92.0883   15.4834 C.ar    1  UNL1       -0.0034
     22 C          66.7891   92.8758   16.1876 C.ar    1  UNL1        0.0111
     23 C          68.1051   93.1276   15.5133 C.ar    1  UNL1        0.0577
     24 CL         69.1701   93.9151   16.2173 Cl      1  UNL1       -0.0822
     25 C          68.3562   92.5919   14.1349 C.ar    1  UNL1        0.0111
     26 C          67.2912   91.8044   13.4307 C.ar    1  UNL1       -0.0034
@<TRIPOS>BOND
     1     7     8    1
     2     8     9   ar
     3     9    10   ar
     4    10    11   ar
     5    11    12   ar
     6    12    13   ar
     7    13    14   ar
     8    14     6    1
     9     6     1    1
    10     1     2   ar
    11     2     3   ar
    12     3    18    1
    13    18    19    1
    14    19    20    1
    15    20    21   ar
    16    21    22   ar
    17    22    23   ar
    18    23    24    1
    19    23    25   ar
    20    25    26   ar
    21     3     4   ar
    22     4     5   ar
    23    14    15   ar
    24    15    16    2
    25    15    17   ar
    26    17     8   ar
    27    17    11   ar
    28     5     1   ar
    29    26    20   ar
@<TRIPOS>MOLECULE
*****
 26 29 0 0 0
SMALL
GASTEIGER

@<TRIPOS>ATOM
      1 C          63.5564   87.1650   16.1020 C.ar    1  UNL1        0.2595
      2 N          63.9708   87.9803   14.9132 N.ar    1  UNL1       -0.1932
      3 C          63.4007   89.3583   15.0746 C.ar    1  UNL1        0.1809
      4 N          62.6338   89.3946   16.3633 N.ar    1  UNL1       -0.0605
      5 O          62.7300   88.0390   16.9982 O.2     1  UNL1       -0.3353
      6 C          63.9067   85.7279   16.3510 C.3     1  UNL1        0.1984
      7 C          60.9637   81.0975   14.1851 C.3     1  UNL1        0.1322
      8 N          62.1979   81.5743   13.4784 N.ar    1  UNL1       -0.3020
      9 C          62.7869   80.9789   12.2340 C.ar    1  UNL1        0.1803
     10 N          64.0128   81.7667   11.8785 N.ar    1  UNL1       -0.2047
     11 C          64.1815   82.8491   12.9032 C.ar    1  UNL1        0.1861
     12 N          65.2115   83.9276   13.0636 N.ar    1  UNL1       -0.2046
     13 C          65.1199   84.8872   14.2129 C.ar    1  UNL1        0.1828
     14 N          63.9983   84.7683   15.2016 N.ar    1  UNL1       -0.2675
     15 C          62.9682   83.6897   15.0412 C.ar    1  UNL1        0.2814
     16 O          61.8465   83.5708   16.0301 O.2     1  UNL1       -0.2652
     17 C          63.0598   82.7301   13.8920 C.ar    1  UNL1        0.1543
     18 C          63.5680   90.4997   14.1157 C.3     1  UNL1        0.0739
     19 C          63.9303   90.2305   12.6852 C.3     1  UNL1        0.0344
     20 C          62.9020   89.6799   11.7421 C.ar    1  UNL1       -0.0217
     21 C          62.7559   88.1964   11.5746 C.ar    1  UNL1       -0.0034
     22 C          61.7276   87.6457   10.6315 C.ar    1  UNL1        0.0111
     23 C          60.8454   88.5785    9.8559 C.ar    1  UNL1        0.0577
     24 CL         59.8171   88.0280    8.9128 Cl      1  UNL1       -0.0822
     25 C          60.9915   90.0620   10.0234 C.ar    1  UNL1        0.0111
     26 C          62.0198   90.6127   10.9665 C.ar    1  UNL1       -0.0034
@<TRIPOS>BOND
     1     7     8    1
     2     8     9   ar
     3     9    10   ar
     4    10    11   ar
     5    11    12   ar
     6    12    13   ar
     7    13    14   ar
     8    14     6    1
     9     6     1    1
    10     1     2   ar
    11     2     3   ar
    12     3    18    1
    13    18    19    1
    14    19    20    1
    15    20    21   ar
    16    21    22   ar
    17    22    23   ar
    18    23    24    1
    19    23    25   ar
    20    25    26   ar
    21     3     4   ar
    22     4     5   ar
    23    14    15   ar
    24    15    16    2
    25    15    17   ar
    26    17     8   ar
    27    17    11   ar
    28     5     1   ar
    29    26    20   ar
