@<TRIPOS>MOLECULE
*****
 40 45 0 0 0
SMALL
GASTEIGER

@<TRIPOS>ATOM
      1 C          61.6112   96.2507   -1.2655 C.3     1  UNL1        0.0543
      2 C          62.1865   95.3298   -0.2306 C.ar    1  UNL1        0.0884
      3 N          63.6443   95.0583   -0.0046 N.ar    1  UNL1       -0.1507
      4 N          63.7638   94.0794    1.1256 N.ar    1  UNL1       -0.1305
      5 C          62.3798   93.7460    1.5983 C.ar    1  UNL1        0.1688
      6 N          61.8812   92.8385    2.6836 N.ar    1  UNL1       -0.3223
      7 C          60.4079   92.7038    2.9307 C.ar    1  UNL1        0.1447
      8 N          59.4331   93.4765    2.0926 N.ar    1  UNL1       -0.1943
      9 C          59.9317   94.3841    1.0072 C.ar    1  UNL1        0.2301
     10 C          61.4050   94.5188    0.7601 C.ar    1  UNL1        0.1041
     11 H          62.5210   92.3313    3.2337 H       1  UNL1        0.1688
     12 C          59.9094   91.7963    4.0161 C.ar    1  UNL1        0.0342
     13 C          58.4597   91.8127    4.4005 C.ar    1  UNL1        0.0043
     14 C          57.9611   90.9051    5.4859 C.ar    1  UNL1        0.0160
     15 C          58.9125   89.9812    6.1868 C.ar    1  UNL1        0.0648
     16 C          60.3623   89.9649    5.8023 C.ar    1  UNL1        0.0160
     17 C          60.8608   90.8724    4.7170 C.ar    1  UNL1        0.0043
     18 N          58.4141   89.0737    7.2721 N.pl3   1  UNL1       -0.2149
     19 H          57.4518   89.0325    7.4760 H       1  UNL1        0.1737
     20 S          59.3818   88.2290    8.0467 S.O2    1  UNL1        0.0758
     21 O          59.9973   89.4672    8.6281 O.2     1  UNL1       -0.1499
     22 O          58.7662   86.9908    7.4654 O.2     1  UNL1       -0.1499
     23 C          60.3495   87.3843    8.8214 C.ar    1  UNL1        0.1533
     24 C          61.3357   86.5173    8.0964 C.ar    1  UNL1        0.0339
     25 C          62.3033   85.6727    8.8711 C.ar    1  UNL1        0.0592
     26 CL         63.2896   84.8057    8.1462 Cl      1  UNL1       -0.0822
     27 C          62.2848   85.6951   10.3708 C.ar    1  UNL1        0.0138
     28 C          61.2987   86.5622   11.0959 C.ar    1  UNL1        0.0319
     29 C          60.3310   87.4068   10.3211 C.ar    1  UNL1        0.1589
     30 F          59.3447   88.2739   11.0461 F       1  UNL1       -0.2027
     31 O          58.9568   95.1569    0.1690 O.3     1  UNL1       -0.4638
     32 C          58.3052   94.5063   -1.0151 C.3     1  UNL1        0.1703
     33 C          56.8646   94.7857   -1.3260 C.3     1  UNL1        0.0609
     34 C          56.2131   94.1351   -2.5101 C.3     1  UNL1        0.0758
     35 N          57.0022   93.2052   -3.3834 N.3     1  UNL1       -0.2737
     36 C          58.4428   92.9258   -3.0725 C.3     1  UNL1        0.0758
     37 C          59.0943   93.5764   -1.8884 C.3     1  UNL1        0.0609
     38 C          56.3505   92.5546   -4.5676 C.3     1  UNL1        0.0576
     39 C          55.5994   91.4029   -5.1670 C.3     1  UNL1        0.0173
     40 C          55.9730   92.5795   -6.0190 C.3     1  UNL1        0.0173
@<TRIPOS>BOND
     1     1     2    1
     2     2     3   ar
     3     3     4   ar
     4     4     5   ar
     5     5     6   ar
     6     6     7   ar
     7     7    12    1
     8    12    13   ar
     9    13    14   ar
    10    14    15   ar
    11    15    18    1
    12    18    20    1
    13    20    21    2
    14    20    22    2
    15    20    23    1
    16    23    24   ar
    17    24    25   ar
    18    25    26    1
    19    25    27   ar
    20    27    28   ar
    21    28    29   ar
    22    29    30    1
    23    15    16   ar
    24    16    17   ar
    25     7     8   ar
    26     8     9   ar
    27     9    31    1
    28    31    32    1
    29    32    33    1
    30    33    34    1
    31    34    35    1
    32    35    38    1
    33    38    39    1
    34    39    40    1
    35    35    36    1
    36    36    37    1
    37     9    10   ar
    38    10     2   ar
    39    10     5    1
    40    17    12   ar
    41    37    32    1
    42    29    23   ar
    43    40    38    1
    44     6    11    1
    45    18    19    1
@<TRIPOS>MOLECULE
*****
 40 45 0 0 0
SMALL
GASTEIGER

@<TRIPOS>ATOM
      1 C          64.8845   85.0038   15.2182 C.3     1  UNL1        0.0543
      2 C          64.1261   84.5787   13.9958 C.ar    1  UNL1        0.0884
      3 N          63.9824   83.1733   13.4918 N.ar    1  UNL1       -0.1507
      4 N          63.1458   83.2104   12.2473 N.ar    1  UNL1       -0.1305
      5 C          62.7725   84.6388   11.9822 C.ar    1  UNL1        0.1688
      6 N          61.9592   85.2787   10.8964 N.ar    1  UNL1       -0.3223
      7 C          61.7517   86.7643   10.8912 C.ar    1  UNL1        0.1447
      8 N          62.3575   87.6099   11.9718 N.ar    1  UNL1       -0.1943
      9 C          63.1709   86.9700   13.0577 C.ar    1  UNL1        0.2301
     10 C          63.3784   85.4844   13.0628 C.ar    1  UNL1        0.1041
     11 H          61.5615   84.7237   10.1871 H       1  UNL1        0.1688
     12 C          60.9383   87.4041    9.8053 C.ar    1  UNL1        0.0342
     13 C          60.1768   86.5495    8.8361 C.ar    1  UNL1        0.0043
     14 C          59.3634   87.1894    7.7502 C.ar    1  UNL1        0.0160
     15 C          59.3117   88.6839    7.6337 C.ar    1  UNL1        0.0648
     16 C          60.0732   89.5386    8.6031 C.ar    1  UNL1        0.0160
     17 C          60.8866   88.8987    9.6889 C.ar    1  UNL1        0.0043
     18 N          58.4983   89.3239    6.5479 N.pl3   1  UNL1       -0.2149
     19 H          57.5330   89.1414    6.4834 H       1  UNL1        0.1737
     20 S          59.1557   90.2418    5.5603 S.O2    1  UNL1        0.0758
     21 O          60.3517   89.3375    5.5159 O.2     1  UNL1       -0.1499
     22 O          57.9598   91.1461    5.6047 O.2     1  UNL1       -0.1499
     23 C          59.8132   91.1596    4.5727 C.ar    1  UNL1        0.1533
     24 C          61.2926   91.0754    4.3402 C.ar    1  UNL1        0.0339
     25 C          61.9500   91.9933    3.3526 C.ar    1  UNL1        0.0592
     26 CL         63.4295   91.9091    3.1201 Cl      1  UNL1       -0.0822
     27 C          61.1280   92.9953    2.5976 C.ar    1  UNL1        0.0138
     28 C          59.6485   93.0795    2.8301 C.ar    1  UNL1        0.0319
     29 C          58.9911   92.1617    3.8177 C.ar    1  UNL1        0.1589
     30 F          57.5116   92.2458    4.0503 F       1  UNL1       -0.2027
     31 O          63.7767   87.8157   14.1383 O.3     1  UNL1       -0.4638
     32 C          64.3002   89.1838   13.8153 C.3     1  UNL1        0.1703
     33 C          65.3671   89.8000   14.6708 C.3     1  UNL1        0.0609
     34 C          65.8905   91.1680   14.3476 C.3     1  UNL1        0.0758
     35 N          65.3470   91.9199   13.1690 N.3     1  UNL1       -0.2737
     36 C          64.2800   91.3037   12.3134 C.3     1  UNL1        0.0758
     37 C          63.7566   89.9356   12.6366 C.3     1  UNL1        0.0609
     38 C          65.8705   93.2880   12.8459 C.3     1  UNL1        0.0576
     39 C          66.5155   94.5691   13.2848 C.3     1  UNL1        0.0173
     40 C          66.1321   94.3764   11.8476 C.3     1  UNL1        0.0173
@<TRIPOS>BOND
     1     1     2    1
     2     2     3   ar
     3     3     4   ar
     4     4     5   ar
     5     5     6   ar
     6     6     7   ar
     7     7    12    1
     8    12    13   ar
     9    13    14   ar
    10    14    15   ar
    11    15    18    1
    12    18    20    1
    13    20    21    2
    14    20    22    2
    15    20    23    1
    16    23    24   ar
    17    24    25   ar
    18    25    26    1
    19    25    27   ar
    20    27    28   ar
    21    28    29   ar
    22    29    30    1
    23    15    16   ar
    24    16    17   ar
    25     7     8   ar
    26     8     9   ar
    27     9    31    1
    28    31    32    1
    29    32    33    1
    30    33    34    1
    31    34    35    1
    32    35    38    1
    33    38    39    1
    34    39    40    1
    35    35    36    1
    36    36    37    1
    37     9    10   ar
    38    10     2   ar
    39    10     5    1
    40    17    12   ar
    41    37    32    1
    42    29    23   ar
    43    40    38    1
    44     6    11    1
    45    18    19    1
@<TRIPOS>MOLECULE
*****
 40 45 0 0 0
SMALL
GASTEIGER

@<TRIPOS>ATOM
      1 C          61.2661   86.6419   11.9318 C.3     1  UNL1        0.0543
      2 C          61.0489   86.5119   10.4533 C.ar    1  UNL1        0.0884
      3 N          61.1097   85.2393    9.6618 N.ar    1  UNL1       -0.1507
      4 N          60.8311   85.5725    8.2260 N.ar    1  UNL1       -0.1305
      5 C          60.5980   87.0512    8.1303 C.ar    1  UNL1        0.1688
      6 N          60.2806   87.9440    6.9675 N.ar    1  UNL1       -0.3223
      7 C          60.0978   89.4174    7.1812 C.ar    1  UNL1        0.1447
      8 N          60.2324   89.9980    8.5577 N.ar    1  UNL1       -0.1943
      9 C          60.5498   89.1052    9.7205 C.ar    1  UNL1        0.2301
     10 C          60.7326   87.6318    9.5068 C.ar    1  UNL1        0.1041
     11 H          60.1923   87.5630    6.0640 H       1  UNL1        0.1688
     12 C          59.7804   90.3102    6.0183 C.ar    1  UNL1        0.0342
     13 C          60.8831   90.8066    5.1310 C.ar    1  UNL1        0.0043
     14 C          60.5657   91.6994    3.9681 C.ar    1  UNL1        0.0160
     15 C          59.1455   92.0958    3.6927 C.ar    1  UNL1        0.0648
     16 C          58.0428   91.5994    4.5801 C.ar    1  UNL1        0.0160
     17 C          58.3602   90.7066    5.7429 C.ar    1  UNL1        0.0043
     18 N          58.8281   92.9886    2.5299 N.pl3   1  UNL1       -0.2149
     19 H          57.8962   93.2503    2.3503 H       1  UNL1        0.1737
     20 S          59.9305   93.4825    1.6407 S.O2    1  UNL1        0.0758
     21 O          59.7457   92.2903    0.7493 O.2     1  UNL1       -0.1499
     22 O          60.1152   94.6747    2.5320 O.2     1  UNL1       -0.1499
     23 C          61.0329   93.9764    0.7514 C.ar    1  UNL1        0.1533
     24 C          62.4491   93.5530    1.0067 C.ar    1  UNL1        0.0339
     25 C          63.5514   94.0469    0.1174 C.ar    1  UNL1        0.0592
     26 CL         64.9676   93.6235    0.3726 Cl      1  UNL1       -0.0822
     27 C          63.2376   94.9643   -1.0272 C.ar    1  UNL1        0.0138
     28 C          61.8215   95.3877   -1.2825 C.ar    1  UNL1        0.0319
     29 C          60.7191   94.8938   -0.3931 C.ar    1  UNL1        0.1589
     30 F          59.3028   95.3172   -0.6484 F       1  UNL1       -0.2027
     31 O          60.6844   89.6858   11.0971 O.3     1  UNL1       -0.4638
     32 C          61.9792   90.3112   11.5239 C.3     1  UNL1        0.1703
     33 C          62.7948   91.0943   10.5383 C.3     1  UNL1        0.0609
     34 C          64.0897   91.7197   10.9652 C.3     1  UNL1        0.0758
     35 N          64.5689   91.5620   12.3779 N.3     1  UNL1       -0.2737
     36 C          63.7533   90.7789   13.3635 C.3     1  UNL1        0.0758
     37 C          62.4584   90.1535   12.9366 C.3     1  UNL1        0.0609
     38 C          65.8638   92.1874   12.8047 C.3     1  UNL1        0.0576
     39 C          67.3477   92.0952   13.0031 C.3     1  UNL1        0.0173
     40 C          66.6226   93.3628   13.3456 C.3     1  UNL1        0.0173
@<TRIPOS>BOND
     1     1     2    1
     2     2     3   ar
     3     3     4   ar
     4     4     5   ar
     5     5     6   ar
     6     6     7   ar
     7     7    12    1
     8    12    13   ar
     9    13    14   ar
    10    14    15   ar
    11    15    18    1
    12    18    20    1
    13    20    21    2
    14    20    22    2
    15    20    23    1
    16    23    24   ar
    17    24    25   ar
    18    25    26    1
    19    25    27   ar
    20    27    28   ar
    21    28    29   ar
    22    29    30    1
    23    15    16   ar
    24    16    17   ar
    25     7     8   ar
    26     8     9   ar
    27     9    31    1
    28    31    32    1
    29    32    33    1
    30    33    34    1
    31    34    35    1
    32    35    38    1
    33    38    39    1
    34    39    40    1
    35    35    36    1
    36    36    37    1
    37     9    10   ar
    38    10     2   ar
    39    10     5    1
    40    17    12   ar
    41    37    32    1
    42    29    23   ar
    43    40    38    1
    44     6    11    1
    45    18    19    1
@<TRIPOS>MOLECULE
*****
 40 45 0 0 0
SMALL
GASTEIGER

@<TRIPOS>ATOM
      1 C          64.3314   84.7423   14.4978 C.3     1  UNL1        0.0543
      2 C          63.6393   84.4809   13.1929 C.ar    1  UNL1        0.0884
      3 N          63.4976   83.1470   12.5218 N.ar    1  UNL1       -0.1507
      4 N          62.7381   83.3492   11.2441 N.ar    1  UNL1       -0.1305
      5 C          62.4105   84.8082   11.1256 C.ar    1  UNL1        0.1688
      6 N          61.6769   85.5901   10.0767 N.ar    1  UNL1       -0.3223
      7 C          61.5003   87.0716   10.2321 C.ar    1  UNL1        0.1447
      8 N          62.0572   87.7710   11.4364 N.ar    1  UNL1       -0.1943
      9 C          62.7908   86.9890   12.4855 C.ar    1  UNL1        0.2301
     10 C          62.9674   85.5076   12.3300 C.ar    1  UNL1        0.1041
     11 H          61.3114   85.1311    9.2862 H       1  UNL1        0.1688
     12 C          60.7667   87.8535    9.1830 C.ar    1  UNL1        0.0342
     13 C          60.7713   89.3529    9.2249 C.ar    1  UNL1        0.0043
     14 C          60.0377   90.1348    8.1759 C.ar    1  UNL1        0.0160
     15 C          59.2996   89.4173    7.0849 C.ar    1  UNL1        0.0648
     16 C          59.2950   87.9179    7.0430 C.ar    1  UNL1        0.0160
     17 C          60.0286   87.1360    8.0921 C.ar    1  UNL1        0.0043
     18 N          58.5660   90.1992    6.0359 N.pl3   1  UNL1       -0.2149
     19 H          57.5816   90.1976    6.0192 H       1  UNL1        0.1737
     20 S          59.3322   90.9834    5.0121 S.O2    1  UNL1        0.0758
     21 O          60.5617   90.1800    5.3170 O.2     1  UNL1       -0.1499
     22 O          58.1026   91.7867    4.7073 O.2     1  UNL1       -0.1499
     23 C          60.0985   91.7675    3.9884 C.ar    1  UNL1        0.1533
     24 C          59.3931   92.7835    3.1398 C.ar    1  UNL1        0.0339
     25 C          60.1595   93.5676    2.1161 C.ar    1  UNL1        0.0592
     26 CL         59.4543   94.5837    1.2674 Cl      1  UNL1       -0.0822
     27 C          61.6311   93.3357    1.9411 C.ar    1  UNL1        0.0138
     28 C          62.3364   92.3197    2.7897 C.ar    1  UNL1        0.0319
     29 C          61.5700   91.5356    3.8134 C.ar    1  UNL1        0.1589
     30 F          62.2753   90.5195    4.6622 F       1  UNL1       -0.2027
     31 O          63.3478   87.6886   13.6899 O.3     1  UNL1       -0.4638
     32 C          63.9791   89.0416   13.5462 C.3     1  UNL1        0.1703
     33 C          63.6248   89.9145   12.3789 C.3     1  UNL1        0.0609
     34 C          64.2562   91.2675   12.2353 C.3     1  UNL1        0.0758
     35 N          65.2420   91.7476   13.2589 N.3     1  UNL1       -0.2737
     36 C          65.5963   90.8747   14.4261 C.3     1  UNL1        0.0758
     37 C          64.9649   89.5217   14.5698 C.3     1  UNL1        0.0609
     38 C          65.8733   93.1007   13.1151 C.3     1  UNL1        0.0576
     39 C          66.2329   94.2826   12.2644 C.3     1  UNL1        0.0173
     40 C          66.6072   94.2622   13.7167 C.3     1  UNL1        0.0173
@<TRIPOS>BOND
     1     1     2    1
     2     2     3   ar
     3     3     4   ar
     4     4     5   ar
     5     5     6   ar
     6     6     7   ar
     7     7    12    1
     8    12    13   ar
     9    13    14   ar
    10    14    15   ar
    11    15    18    1
    12    18    20    1
    13    20    21    2
    14    20    22    2
    15    20    23    1
    16    23    24   ar
    17    24    25   ar
    18    25    26    1
    19    25    27   ar
    20    27    28   ar
    21    28    29   ar
    22    29    30    1
    23    15    16   ar
    24    16    17   ar
    25     7     8   ar
    26     8     9   ar
    27     9    31    1
    28    31    32    1
    29    32    33    1
    30    33    34    1
    31    34    35    1
    32    35    38    1
    33    38    39    1
    34    39    40    1
    35    35    36    1
    36    36    37    1
    37     9    10   ar
    38    10     2   ar
    39    10     5    1
    40    17    12   ar
    41    37    32    1
    42    29    23   ar
    43    40    38    1
    44     6    11    1
    45    18    19    1
@<TRIPOS>MOLECULE
*****
 40 45 0 0 0
SMALL
GASTEIGER

@<TRIPOS>ATOM
      1 C          64.9391   83.0945   14.3000 C.3     1  UNL1        0.0543
      2 C          64.5289   83.1433   12.8580 C.ar    1  UNL1        0.0884
      3 N          64.9483   82.1784   11.7888 N.ar    1  UNL1       -0.1507
      4 N          64.3059   82.6043   10.5020 N.ar    1  UNL1       -0.1305
      5 C          63.4894   83.8325   10.7758 C.ar    1  UNL1        0.1688
      6 N          62.6382   84.6905    9.8875 N.ar    1  UNL1       -0.3223
      7 C          61.9249   85.8817   10.4551 C.ar    1  UNL1        0.1447
      8 N          62.0627   86.2148   11.9111 N.ar    1  UNL1       -0.1943
      9 C          62.9139   85.3567   12.7996 C.ar    1  UNL1        0.2301
     10 C          63.6272   84.1656   12.2319 C.ar    1  UNL1        0.1041
     11 H          62.5478   84.4719    8.9318 H       1  UNL1        0.1688
     12 C          61.0737   86.7398    9.5667 C.ar    1  UNL1        0.0342
     13 C          61.0497   88.2270    9.7598 C.ar    1  UNL1        0.0043
     14 C          60.1985   89.0851    8.8713 C.ar    1  UNL1        0.0160
     15 C          59.3714   88.4557    7.7898 C.ar    1  UNL1        0.0648
     16 C          59.3955   86.9684    7.5966 C.ar    1  UNL1        0.0160
     17 C          60.2466   86.1104    8.4851 C.ar    1  UNL1        0.0043
     18 N          58.5202   89.3137    6.9013 N.pl3   1  UNL1       -0.2149
     19 H          57.5410   89.3084    7.0032 H       1  UNL1        0.1737
     20 S          59.1610   90.1798    5.8576 S.O2    1  UNL1        0.0758
     21 O          60.3721   89.2949    5.8668 O.2     1  UNL1       -0.1499
     22 O          57.9498   91.0648    5.8484 O.2     1  UNL1       -0.1499
     23 C          59.8018   91.0459    4.8139 C.ar    1  UNL1        0.1533
     24 C          61.2686   90.9155    4.5284 C.ar    1  UNL1        0.0339
     25 C          61.9093   91.7816    3.4846 C.ar    1  UNL1        0.0592
     26 CL         63.3761   91.6513    3.1991 Cl      1  UNL1       -0.0822
     27 C          61.0833   92.7780    2.7265 C.ar    1  UNL1        0.0138
     28 C          59.6165   92.9084    3.0120 C.ar    1  UNL1        0.0319
     29 C          58.9758   92.0423    4.0557 C.ar    1  UNL1        0.1589
     30 F          57.5089   92.1726    4.3413 F       1  UNL1       -0.2027
     31 O          63.0517   85.6899   14.2556 O.3     1  UNL1       -0.4638
     32 C          63.4196   87.0824   14.6748 C.3     1  UNL1        0.1703
     33 C          64.0845   88.0082   13.6998 C.3     1  UNL1        0.0609
     34 C          64.4523   89.4007   14.1191 C.3     1  UNL1        0.0758
     35 N          64.1551   89.8672   15.5134 N.3     1  UNL1       -0.2737
     36 C          63.4902   88.9413   16.4884 C.3     1  UNL1        0.0758
     37 C          63.1224   87.5489   16.0691 C.3     1  UNL1        0.0609
     38 C          64.5230   91.2597   15.9326 C.3     1  UNL1        0.0576
     39 C          64.2509   92.4826   16.7576 C.3     1  UNL1        0.0173
     40 C          65.4321   92.4487   15.8338 C.3     1  UNL1        0.0173
@<TRIPOS>BOND
     1     1     2    1
     2     2     3   ar
     3     3     4   ar
     4     4     5   ar
     5     5     6   ar
     6     6     7   ar
     7     7    12    1
     8    12    13   ar
     9    13    14   ar
    10    14    15   ar
    11    15    18    1
    12    18    20    1
    13    20    21    2
    14    20    22    2
    15    20    23    1
    16    23    24   ar
    17    24    25   ar
    18    25    26    1
    19    25    27   ar
    20    27    28   ar
    21    28    29   ar
    22    29    30    1
    23    15    16   ar
    24    16    17   ar
    25     7     8   ar
    26     8     9   ar
    27     9    31    1
    28    31    32    1
    29    32    33    1
    30    33    34    1
    31    34    35    1
    32    35    38    1
    33    38    39    1
    34    39    40    1
    35    35    36    1
    36    36    37    1
    37     9    10   ar
    38    10     2   ar
    39    10     5    1
    40    17    12   ar
    41    37    32    1
    42    29    23   ar
    43    40    38    1
    44     6    11    1
    45    18    19    1
@<TRIPOS>MOLECULE
*****
 40 45 0 0 0
SMALL
GASTEIGER

@<TRIPOS>ATOM
      1 C          62.9902   95.5915   -2.1909 C.3     1  UNL1        0.0543
      2 C          63.2614   95.2718   -0.7506 C.ar    1  UNL1        0.0884
      3 N          64.4283   95.7591    0.0561 N.ar    1  UNL1       -0.1507
      4 N          64.3013   95.1971    1.4411 N.ar    1  UNL1       -0.1305
      5 C          63.0560   94.3624    1.4903 C.ar    1  UNL1        0.1688
      6 N          62.4241   93.5663    2.5935 N.ar    1  UNL1       -0.3223
      7 C          61.1496   92.8164    2.3421 C.ar    1  UNL1        0.1447
      8 N          60.5069   92.8626    0.9876 N.ar    1  UNL1       -0.1943
      9 C          61.1387   93.6587   -0.1156 C.ar    1  UNL1        0.2301
     10 C          62.4133   94.4086    0.1357 C.ar    1  UNL1        0.1041
     11 H          62.8460   93.5360    3.4825 H       1  UNL1        0.1688
     12 C          60.5178   92.0203    3.4454 C.ar    1  UNL1        0.0342
     13 C          59.1111   92.3165    3.8732 C.ar    1  UNL1        0.0043
     14 C          58.4793   91.5204    4.9765 C.ar    1  UNL1        0.0160
     15 C          59.2544   90.4281    5.6518 C.ar    1  UNL1        0.0648
     16 C          60.6613   90.1319    5.2239 C.ar    1  UNL1        0.0160
     17 C          61.2930   90.9281    4.1207 C.ar    1  UNL1        0.0043
     18 N          58.6227   89.6320    6.7551 N.pl3   1  UNL1       -0.2149
     19 H          57.6438   89.6258    6.8594 H       1  UNL1        0.1737
     20 S          59.4825   88.8453    7.6994 S.O2    1  UNL1        0.0758
     21 O          60.3515   90.0494    7.9114 O.2     1  UNL1       -0.1499
     22 O          58.6135   87.6411    7.4875 O.2     1  UNL1       -0.1499
     23 C          60.3424   88.0586    8.6438 C.ar    1  UNL1        0.1533
     24 C          61.2236   86.9634    8.1205 C.ar    1  UNL1        0.0339
     25 C          62.0834   86.1768    9.0649 C.ar    1  UNL1        0.0592
     26 CL         62.9647   85.0816    8.5416 Cl      1  UNL1       -0.0822
     27 C          62.0620   86.4855   10.5327 C.ar    1  UNL1        0.0138
     28 C          61.1808   87.5807   11.0560 C.ar    1  UNL1        0.0319
     29 C          60.3210   88.3673   10.1116 C.ar    1  UNL1        0.1589
     30 F          59.4397   89.4626   10.6349 F       1  UNL1       -0.2027
     31 O          60.4959   93.7048   -1.4702 O.3     1  UNL1       -0.4638
     32 C          59.0922   94.2124   -1.6173 C.3     1  UNL1        0.1703
     33 C          57.9435   93.4051   -1.0894 C.3     1  UNL1        0.0609
     34 C          56.5397   93.9128   -1.2366 C.3     1  UNL1        0.0758
     35 N          56.2846   95.2278   -1.9116 N.3     1  UNL1       -0.2737
     36 C          57.4333   96.0351   -2.4395 C.3     1  UNL1        0.0758
     37 C          58.8371   95.5274   -2.2923 C.3     1  UNL1        0.0609
     38 C          54.8807   95.7354   -2.0587 C.3     1  UNL1        0.0576
     39 C          53.9292   96.8557   -2.3578 C.3     1  UNL1        0.0173
     40 C          53.4010   95.4944   -2.0144 C.3     1  UNL1        0.0173
@<TRIPOS>BOND
     1     1     2    1
     2     2     3   ar
     3     3     4   ar
     4     4     5   ar
     5     5     6   ar
     6     6     7   ar
     7     7    12    1
     8    12    13   ar
     9    13    14   ar
    10    14    15   ar
    11    15    18    1
    12    18    20    1
    13    20    21    2
    14    20    22    2
    15    20    23    1
    16    23    24   ar
    17    24    25   ar
    18    25    26    1
    19    25    27   ar
    20    27    28   ar
    21    28    29   ar
    22    29    30    1
    23    15    16   ar
    24    16    17   ar
    25     7     8   ar
    26     8     9   ar
    27     9    31    1
    28    31    32    1
    29    32    33    1
    30    33    34    1
    31    34    35    1
    32    35    38    1
    33    38    39    1
    34    39    40    1
    35    35    36    1
    36    36    37    1
    37     9    10   ar
    38    10     2   ar
    39    10     5    1
    40    17    12   ar
    41    37    32    1
    42    29    23   ar
    43    40    38    1
    44     6    11    1
    45    18    19    1
