@<TRIPOS>MOLECULE
*****
 40 46 0 0 0
SMALL
GASTEIGER

@<TRIPOS>ATOM
      1 C          61.2694   92.5143    2.5702 C.2     1  UNL1       -0.0378
      2 C          62.1146   91.4985    3.2800 C.2     1  UNL1       -0.0080
      3 C          61.5440   90.7172    4.4263 C.2     1  UNL1        0.0022
      4 C          60.1283   90.9518    4.8629 C.2     1  UNL1        0.0350
      5 C          59.2988   90.3377    5.9514 C.2     1  UNL1        0.1040
      6 N          57.9409   90.9739    5.9145 N.2     1  UNL1       -0.1483
      7 N          57.9312   91.9813    4.8031 N.2     1  UNL1       -0.1520
      8 C          59.2831   91.9676    4.1532 C.2     1  UNL1        0.0860
      9 C          59.8536   92.7488    3.0068 C.3     1  UNL1        0.0697
     10 C          63.5948   95.9564   -2.8664 C.ar    1  UNL1        0.1385
     11 C          62.6205   95.6534   -3.9659 C.ar    1  UNL1        0.0382
     12 C          61.4488   94.7543   -3.7030 C.ar    1  UNL1        0.0177
     13 C          61.2516   94.1584   -2.3407 C.ar    1  UNL1        0.0505
     14 C          62.2259   94.4614   -1.2412 C.ar    1  UNL1        0.0024
     15 C          63.3975   95.3604   -1.5040 C.ar    1  UNL1        0.0343
     16 C          61.7753   93.7342   -0.0091 C.3     1  UNL1        0.0931
     17 C          62.8926   94.2100    0.8713 C.3     1  UNL1        0.0179
     18 C          61.8399   93.2955    1.4239 C.3     1  UNL1        0.0315
     19 C          60.5225   92.9817   -0.3471 C.2     1  UNL1        0.2326
     20 O          59.7321   92.1186    0.5912 O.2     1  UNL1       -0.2742
     21 N          60.1988   93.2438   -1.7881 N.am    1  UNL1       -0.2569
     22 C          59.0279   92.6889   -2.5438 C.3     1  UNL1        0.1200
     23 C          65.6498   96.6086   -4.3161 C.3     1  UNL1        0.2525
     24 O          64.7664   96.8554   -3.1292 O.3     1  UNL1       -0.4714
     25 C          59.7483   89.2741    6.9089 C.2     1  UNL1        0.0209
     26 C          60.4732   89.6542    8.1658 C.2     1  UNL1        0.0016
     27 C          60.9228   88.5906    9.1233 C.ar    1  UNL1        0.0000
     28 C          60.4109   87.1879    8.9804 C.ar    1  UNL1       -0.0003
     29 C          60.8604   86.1243    9.9378 C.ar    1  UNL1       -0.0030
     30 C          61.8217   86.4634   11.0381 C.ar    1  UNL1       -0.0078
     31 C          62.3336   87.8661   11.1811 C.ar    1  UNL1       -0.0030
     32 C          61.8842   88.9297   10.2236 C.ar    1  UNL1       -0.0003
     33 C          62.2712   85.3998   11.9956 C.3     1  UNL1        0.0803
     34 C          62.2046   85.6446   13.4739 C.3     1  UNL1        0.0222
     35 N          62.7874   84.0912   11.4746 N.3     1  UNL1       -0.2660
     36 C          63.6913   84.0644   10.2779 C.3     1  UNL1        0.1048
     37 C          64.2074   82.7559    9.7570 C.3     1  UNL1        0.1595
     38 O          63.8195   81.4741   10.4327 O.3     1  UNL1       -0.3508
     39 C          62.9155   81.5009   11.6295 C.3     1  UNL1        0.1595
     40 C          62.3995   82.8094   12.1503 C.3     1  UNL1        0.1048
@<TRIPOS>BOND
     1    23    24    1
     2    24    10    1
     3    10    11   ar
     4    11    12   ar
     5    12    13   ar
     6    13    14   ar
     7    14    15   ar
     8    14    16    1
     9    16    17    1
    10    17    18    1
    11    18     1    1
    12     1     2    2
    13     2     3    1
    14     3     4    2
    15     4     5    1
    16     5    25    1
    17    25    26    2
    18    26    27    1
    19    27    28   ar
    20    28    29   ar
    21    29    30   ar
    22    30    33    1
    23    33    34    1
    24    33    35    1
    25    35    36    1
    26    36    37    1
    27    37    38    1
    28    38    39    1
    29    39    40    1
    30    30    31   ar
    31    31    32   ar
    32     5     6    2
    33     6     7    1
    34     7     8    2
    35     8     9    1
    36    16    19    1
    37    19    20    2
    38    19    21   am
    39    21    22    1
    40    15    10   ar
    41    18    16    1
    42     9     1    1
    43    21    13    1
    44     8     4    1
    45    32    27   ar
    46    40    35    1
