@<TRIPOS>MOLECULE
*****
 32 35 0 0 0
SMALL
GASTEIGER

@<TRIPOS>ATOM
      1 C          65.2707   92.0026   12.4362 C.ar    1  UNL1       -0.0004
      2 C          64.9268   91.1544   13.6245 C.ar    1  UNL1       -0.0024
      3 C          63.7896   90.1795   13.5461 C.ar    1  UNL1       -0.0002
      4 C          62.9964   90.0527   12.2794 C.ar    1  UNL1        0.0030
      5 C          61.8591   89.0776   12.2011 C.ar    1  UNL1        0.0369
      6 C          61.0658   88.9509   10.9344 C.ar    1  UNL1        0.1386
      7 C          61.4098   89.7991    9.7459 C.ar    1  UNL1        0.0369
      8 C          62.5469   90.7741    9.8243 C.ar    1  UNL1        0.0031
      9 C          63.3402   90.9009   11.0911 C.ar    1  UNL1       -0.0001
     10 C          64.4774   91.8759   11.1694 C.ar    1  UNL1       -0.0024
     11 C          66.4080   92.9777   12.5145 C.3     1  UNL1        0.1240
     12 N          67.2971   92.9974   13.7224 N.ar    1  UNL1       -0.3045
     13 C          67.1600   93.9120   14.9033 C.ar    1  UNL1        0.0983
     14 C          68.2576   93.5858   15.8722 C.ar    1  UNL1        0.1193
     15 N          69.0732   92.4696   15.2901 N.ar    1  UNL1       -0.2223
     16 C          68.4795   92.1059   13.9614 C.ar    1  UNL1        0.1788
     17 C          66.0391   95.3001   11.4097 C.3     1  UNL1        0.0197
     18 C          66.6560   93.9330   11.3849 C.3     1  UNL1        0.0827
     19 N          67.5208   93.5212   10.2306 N.3     1  UNL1       -0.2696
     20 C          67.7596   94.4724    9.0956 C.3     1  UNL1        0.0897
     21 C          68.1470   92.1583   10.2113 C.3     1  UNL1        0.0897
     22 O          59.9286   87.9759   10.8560 O.3     1  UNL1       -0.4751
     23 C          59.7775   87.0951    9.6512 C.3     1  UNL1        0.2103
     24 C          60.9269   86.2473    9.1930 C.3     1  UNL1        0.0723
     25 C          61.1562   86.2181   10.6751 C.3     1  UNL1        0.0088
     26 C          62.3167   85.4534   11.2395 C.3     1  UNL1        0.0005
     27 C          63.2479   84.7179   10.3217 C.3     1  UNL1        0.0000
     28 C          63.0185   84.7472    8.8397 C.3     1  UNL1        0.0005
     29 C          61.8580   85.5118    8.2753 C.3     1  UNL1        0.0088
     30 C          60.2983   86.5710    7.8701 C.2     1  UNL1        0.0532
     31 O          60.1628   85.5052    6.8233 O.co2   1  UNL1       -0.5491
     32 O          59.8053   87.9605    7.5939 O.co2   1  UNL1       -0.5491
@<TRIPOS>UNITY_ATOM_ATTR
31 1
charge -1
@<TRIPOS>BOND
     1    18    17    1
     2    18    11    1
     3    11     1    1
     4     1     2   ar
     5     2     3   ar
     6     3     4   ar
     7     4     5   ar
     8     5     6   ar
     9     6    22    1
    10    22    23    1
    11    23    24    1
    12    24    30    1
    13    30    31   ar
    14    30    32   ar
    15    24    25    1
    16    25    26    1
    17    26    27    1
    18    27    28    1
    19    28    29    1
    20     6     7   ar
    21     7     8   ar
    22     8     9   ar
    23     9    10   ar
    24    11    12    1
    25    12    13   ar
    26    13    14   ar
    27    14    15   ar
    28    15    16   ar
    29    18    19    1
    30    19    20    1
    31    19    21    1
    32    10     1   ar
    33    16    12   ar
    34     9     4   ar
    35    29    24    1
@<TRIPOS>MOLECULE
*****
 32 35 0 0 0
SMALL
GASTEIGER

@<TRIPOS>ATOM
      1 C          63.5178   85.2782   13.5517 C.ar    1  UNL1       -0.0004
      2 C          64.3304   85.7226   14.7316 C.ar    1  UNL1       -0.0024
      3 C          64.6441   87.1771   14.9212 C.ar    1  UNL1       -0.0002
      4 C          64.1452   88.1872   13.9308 C.ar    1  UNL1        0.0030
      5 C          64.4589   89.6418   14.1204 C.ar    1  UNL1        0.0369
      6 C          63.9600   90.6519   13.1301 C.ar    1  UNL1        0.1386
      7 C          63.1474   90.2074   11.9501 C.ar    1  UNL1        0.0369
      8 C          62.8337   88.7529   11.7606 C.ar    1  UNL1        0.0031
      9 C          63.3326   87.7428   12.7509 C.ar    1  UNL1       -0.0001
     10 C          63.0189   86.2883   12.5614 C.ar    1  UNL1       -0.0024
     11 C          63.2041   83.8236   13.3621 C.3     1  UNL1        0.1240
     12 N          63.5642   83.1402   12.0764 N.ar    1  UNL1       -0.3045
     13 C          62.7426   82.1039   11.3685 C.ar    1  UNL1        0.0983
     14 C          63.4797   81.6962   10.1274 C.ar    1  UNL1        0.1193
     15 N          64.7570   82.4805   10.0682 N.ar    1  UNL1       -0.2223
     16 C          64.8091   83.3729   11.2727 C.ar    1  UNL1        0.1788
     17 C          62.0446   83.7640   15.6864 C.3     1  UNL1        0.0197
     18 C          62.5303   83.0527   14.4583 C.3     1  UNL1        0.0827
     19 N          62.3423   81.5703   14.3264 N.3     1  UNL1       -0.2696
     20 C          63.5343   80.6597   14.3317 C.3     1  UNL1        0.0897
     21 C          60.9623   80.9987   14.1892 C.3     1  UNL1        0.0897
     22 O          64.2737   92.1064   13.3196 O.3     1  UNL1       -0.4751
     23 C          65.5451   92.6779   12.7654 C.3     1  UNL1        0.2103
     24 C          66.8407   92.4683   13.4916 C.3     1  UNL1        0.0723
     25 C          65.9390   92.7738   14.6507 C.3     1  UNL1        0.0088
     26 C          66.4898   92.7889   16.0458 C.3     1  UNL1        0.0005
     27 C          67.9425   92.4984   16.2818 C.3     1  UNL1        0.0000
     28 C          68.8441   92.1928   15.1227 C.3     1  UNL1        0.0005
     29 C          68.2933   92.1778   13.7276 C.3     1  UNL1        0.0088
     30 C          67.2924   92.2355   12.0803 C.2     1  UNL1        0.0532
     31 O          68.6921   91.7700   11.8079 O.co2   1  UNL1       -0.5491
     32 O          66.3445   92.4683   10.9413 O.co2   1  UNL1       -0.5491
@<TRIPOS>UNITY_ATOM_ATTR
31 1
charge -1
@<TRIPOS>BOND
     1    18    17    1
     2    18    11    1
     3    11     1    1
     4     1     2   ar
     5     2     3   ar
     6     3     4   ar
     7     4     5   ar
     8     5     6   ar
     9     6    22    1
    10    22    23    1
    11    23    24    1
    12    24    30    1
    13    30    31   ar
    14    30    32   ar
    15    24    25    1
    16    25    26    1
    17    26    27    1
    18    27    28    1
    19    28    29    1
    20     6     7   ar
    21     7     8   ar
    22     8     9   ar
    23     9    10   ar
    24    11    12    1
    25    12    13   ar
    26    13    14   ar
    27    14    15   ar
    28    15    16   ar
    29    18    19    1
    30    19    20    1
    31    19    21    1
    32    10     1   ar
    33    16    12   ar
    34     9     4   ar
    35    29    24    1
@<TRIPOS>MOLECULE
*****
 32 35 0 0 0
SMALL
GASTEIGER

@<TRIPOS>ATOM
      1 C          65.2255   91.9763   12.4128 C.ar    1  UNL1       -0.0004
      2 C          64.9889   91.0351   13.5564 C.ar    1  UNL1       -0.0024
      3 C          63.9052   90.0020   13.4655 C.ar    1  UNL1       -0.0002
      4 C          63.0582   89.9101   12.2309 C.ar    1  UNL1        0.0030
      5 C          61.9745   88.8769   12.1400 C.ar    1  UNL1        0.0369
      6 C          61.1275   88.7851   10.9055 C.ar    1  UNL1        0.1386
      7 C          61.3643   89.7264    9.7618 C.ar    1  UNL1        0.0369
      8 C          62.4479   90.7595    9.8527 C.ar    1  UNL1        0.0031
      9 C          63.2949   90.8514   11.0873 C.ar    1  UNL1       -0.0001
     10 C          64.3786   91.8845   11.1782 C.ar    1  UNL1       -0.0024
     11 C          66.3092   93.0095   12.5037 C.3     1  UNL1        0.1240
     12 N          66.5621   93.9346   11.3504 N.ar    1  UNL1       -0.3045
     13 C          66.2075   95.3910   11.2941 C.ar    1  UNL1        0.0983
     14 C          66.6402   95.9223    9.9597 C.ar    1  UNL1        0.1193
     15 N          67.2622   94.7942    9.1913 N.ar    1  UNL1       -0.2223
     16 C          67.2139   93.5658   10.0507 C.ar    1  UNL1        0.1788
     17 C          66.6484   93.9289   14.9099 C.3     1  UNL1        0.0197
     18 C          67.1400   93.1176   13.7479 C.3     1  UNL1        0.0827
     19 N          68.4624   92.4143   13.8302 N.3     1  UNL1       -0.2696
     20 C          69.3169   92.5645   15.0539 C.3     1  UNL1        0.0897
     21 C          68.9303   91.5609   12.6888 C.3     1  UNL1        0.0897
     22 O          60.0439   87.7520   10.8145 O.3     1  UNL1       -0.4751
     23 C          59.9236   86.8972    9.5877 C.3     1  UNL1        0.2103
     24 C          61.0837   86.0572    9.1422 C.3     1  UNL1        0.0723
     25 C          61.2783   86.0028   10.6286 C.3     1  UNL1        0.0088
     26 C          62.4255   85.2286   11.2069 C.3     1  UNL1        0.0005
     27 C          63.3782   84.5088   10.2988 C.3     1  UNL1        0.0000
     28 C          63.1835   84.5632    8.8125 C.3     1  UNL1        0.0005
     29 C          62.0363   85.3374    8.2342 C.3     1  UNL1        0.0088
     30 C          60.4861   86.4033    7.8107 C.2     1  UNL1        0.0532
     31 O          59.8799   87.7575    7.5899 O.co2   1  UNL1       -0.5491
     32 O          60.4948   85.3953    6.6998 O.co2   1  UNL1       -0.5491
@<TRIPOS>UNITY_ATOM_ATTR
31 1
charge -1
@<TRIPOS>BOND
     1    18    17    1
     2    18    11    1
     3    11     1    1
     4     1     2   ar
     5     2     3   ar
     6     3     4   ar
     7     4     5   ar
     8     5     6   ar
     9     6    22    1
    10    22    23    1
    11    23    24    1
    12    24    30    1
    13    30    31   ar
    14    30    32   ar
    15    24    25    1
    16    25    26    1
    17    26    27    1
    18    27    28    1
    19    28    29    1
    20     6     7   ar
    21     7     8   ar
    22     8     9   ar
    23     9    10   ar
    24    11    12    1
    25    12    13   ar
    26    13    14   ar
    27    14    15   ar
    28    15    16   ar
    29    18    19    1
    30    19    20    1
    31    19    21    1
    32    10     1   ar
    33    16    12   ar
    34     9     4   ar
    35    29    24    1
@<TRIPOS>MOLECULE
*****
 32 35 0 0 0
SMALL
GASTEIGER

@<TRIPOS>ATOM
      1 C          65.2948   92.4404   11.7301 C.ar    1  UNL1       -0.0004
      2 C          64.5110   92.6071   10.4621 C.ar    1  UNL1       -0.0024
      3 C          63.4631   91.6004   10.0903 C.ar    1  UNL1       -0.0002
      4 C          63.1990   90.4268   10.9865 C.ar    1  UNL1        0.0030
      5 C          62.1510   89.4200   10.6146 C.ar    1  UNL1        0.0369
      6 C          61.8869   88.2465   11.5107 C.ar    1  UNL1        0.1386
      7 C          62.6707   88.0798   12.7788 C.ar    1  UNL1        0.0369
      8 C          63.7186   89.0866   13.1506 C.ar    1  UNL1        0.0031
      9 C          63.9827   90.2601   12.2545 C.ar    1  UNL1       -0.0001
     10 C          65.0306   91.2669   12.6263 C.ar    1  UNL1       -0.0024
     11 C          66.3427   93.4472   12.1020 C.3     1  UNL1        0.1240
     12 N          67.1401   93.2699   13.3601 N.ar    1  UNL1       -0.3045
     13 C          66.8564   93.9186   14.6825 C.ar    1  UNL1        0.0983
     14 C          67.9021   93.4625   15.6564 C.ar    1  UNL1        0.1193
     15 N          68.8320   92.5318   14.9360 N.ar    1  UNL1       -0.2223
     16 C          68.3610   92.4128   13.5168 C.ar    1  UNL1        0.1788
     17 C          66.0277   95.9724   11.5784 C.3     1  UNL1        0.0197
     18 C          66.5933   94.6312   11.2159 C.3     1  UNL1        0.0827
     19 N          67.4094   94.4740    9.9672 N.3     1  UNL1       -0.2696
     20 C          68.1414   93.1910    9.7061 C.3     1  UNL1        0.0897
     21 C          67.4935   95.5998    8.9796 C.3     1  UNL1        0.0897
     22 O          60.8390   87.2398   11.1389 O.3     1  UNL1       -0.4751
     23 C          60.1451   87.3345    9.8124 C.3     1  UNL1        0.2103
     24 C          60.6386   86.5273    8.6484 C.3     1  UNL1        0.0723
     25 C          61.6700   86.1621    9.6746 C.3     1  UNL1        0.0088
     26 C          62.7771   85.2140    9.3209 C.3     1  UNL1        0.0005
     27 C          62.8529   84.6309    7.9408 C.3     1  UNL1        0.0000
     28 C          61.8215   84.9961    6.9147 C.3     1  UNL1        0.0005
     29 C          60.7144   85.9442    7.2685 C.3     1  UNL1        0.0088
     30 C          59.4359   87.1728    8.0265 C.2     1  UNL1        0.0532
     31 O          59.3887   88.6622    7.8547 O.co2   1  UNL1       -0.5491
     32 O          58.2803   86.3289    7.5764 O.co2   1  UNL1       -0.5491
@<TRIPOS>UNITY_ATOM_ATTR
31 1
charge -1
@<TRIPOS>BOND
     1    18    17    1
     2    18    11    1
     3    11     1    1
     4     1     2   ar
     5     2     3   ar
     6     3     4   ar
     7     4     5   ar
     8     5     6   ar
     9     6    22    1
    10    22    23    1
    11    23    24    1
    12    24    30    1
    13    30    31   ar
    14    30    32   ar
    15    24    25    1
    16    25    26    1
    17    26    27    1
    18    27    28    1
    19    28    29    1
    20     6     7   ar
    21     7     8   ar
    22     8     9   ar
    23     9    10   ar
    24    11    12    1
    25    12    13   ar
    26    13    14   ar
    27    14    15   ar
    28    15    16   ar
    29    18    19    1
    30    19    20    1
    31    19    21    1
    32    10     1   ar
    33    16    12   ar
    34     9     4   ar
    35    29    24    1
@<TRIPOS>MOLECULE
*****
 32 35 0 0 0
SMALL
GASTEIGER

@<TRIPOS>ATOM
      1 C          65.4177   92.0447   12.5091 C.ar    1  UNL1       -0.0004
      2 C          65.1689   91.0694   13.6212 C.ar    1  UNL1       -0.0024
      3 C          64.1143   90.0134   13.4707 C.ar    1  UNL1       -0.0002
      4 C          63.3086   89.9327   12.2081 C.ar    1  UNL1        0.0030
      5 C          62.2539   88.8766   12.0576 C.ar    1  UNL1        0.0369
      6 C          61.4482   88.7959   10.7950 C.ar    1  UNL1        0.1386
      7 C          61.6970   89.7713    9.6828 C.ar    1  UNL1        0.0369
      8 C          62.7516   90.8273    9.8333 C.ar    1  UNL1        0.0031
      9 C          63.5574   90.9080   11.0960 C.ar    1  UNL1       -0.0001
     10 C          64.6120   91.9640   11.2465 C.ar    1  UNL1       -0.0024
     11 C          66.4724   93.1007   12.6596 C.3     1  UNL1        0.1240
     12 N          67.2914   93.1693   13.9144 N.ar    1  UNL1       -0.3045
     13 C          68.5909   92.4612   14.1589 C.ar    1  UNL1        0.0983
     14 C          69.0574   92.8123   15.5406 C.ar    1  UNL1        0.1193
     15 N          68.0461   93.7374   16.1501 N.ar    1  UNL1       -0.2223
     16 C          66.9547   93.9581   15.1450 C.ar    1  UNL1        0.1788
     17 C          66.2057   95.4954   11.6877 C.3     1  UNL1        0.0197
     18 C          66.7079   94.0881   11.5553 C.3     1  UNL1        0.0827
     19 N          67.4457   93.6684   10.3186 N.3     1  UNL1       -0.2696
     20 C          68.0703   92.3066   10.2437 C.3     1  UNL1        0.0897
     21 C          67.5590   94.6104    9.1568 C.3     1  UNL1        0.0897
     22 O          60.3936   87.7399   10.6444 O.3     1  UNL1       -0.4751
     23 C          60.7340   86.2997   10.8896 C.3     1  UNL1        0.2103
     24 C          61.6661   85.5807    9.9601 C.3     1  UNL1        0.0723
     25 C          60.7151   86.1772    8.9652 C.3     1  UNL1        0.0088
     26 C          60.9141   85.9342    7.4985 C.3     1  UNL1        0.0005
     27 C          62.0642   85.0946    7.0266 C.3     1  UNL1        0.0000
     28 C          63.0151   84.4982    8.0215 C.3     1  UNL1        0.0005
     29 C          62.8161   84.7412    9.4882 C.3     1  UNL1        0.0088
     30 C          62.2934   85.2339   11.2777 C.2     1  UNL1        0.0532
     31 O          62.6205   83.8060   11.6000 O.co2   1  UNL1       -0.5491
     32 O          62.5934   86.3152   12.2732 O.co2   1  UNL1       -0.5491
@<TRIPOS>UNITY_ATOM_ATTR
31 1
charge -1
@<TRIPOS>BOND
     1    18    17    1
     2    18    11    1
     3    11     1    1
     4     1     2   ar
     5     2     3   ar
     6     3     4   ar
     7     4     5   ar
     8     5     6   ar
     9     6    22    1
    10    22    23    1
    11    23    24    1
    12    24    30    1
    13    30    31   ar
    14    30    32   ar
    15    24    25    1
    16    25    26    1
    17    26    27    1
    18    27    28    1
    19    28    29    1
    20     6     7   ar
    21     7     8   ar
    22     8     9   ar
    23     9    10   ar
    24    11    12    1
    25    12    13   ar
    26    13    14   ar
    27    14    15   ar
    28    15    16   ar
    29    18    19    1
    30    19    20    1
    31    19    21    1
    32    10     1   ar
    33    16    12   ar
    34     9     4   ar
    35    29    24    1
@<TRIPOS>MOLECULE
*****
 32 35 0 0 0
SMALL
GASTEIGER

@<TRIPOS>ATOM
      1 C          65.3007   92.3172   11.8403 C.ar    1  UNL1       -0.0004
      2 C          64.4801   92.4691   10.5939 C.ar    1  UNL1       -0.0024
      3 C          63.4504   91.4362   10.2435 C.ar    1  UNL1       -0.0002
      4 C          63.2414   90.2514   11.1394 C.ar    1  UNL1        0.0030
      5 C          62.2116   89.2185   10.7888 C.ar    1  UNL1        0.0369
      6 C          62.0026   88.0338   11.6847 C.ar    1  UNL1        0.1386
      7 C          62.8233   87.8819   12.9312 C.ar    1  UNL1        0.0369
      8 C          63.8529   88.9148   13.2816 C.ar    1  UNL1        0.0031
      9 C          64.0620   90.0996   12.3857 C.ar    1  UNL1       -0.0001
     10 C          65.0917   91.1324   12.7362 C.ar    1  UNL1       -0.0024
     11 C          66.3305   93.3501   12.1908 C.3     1  UNL1        0.1240
     12 N          67.1046   93.2333   13.4703 N.ar    1  UNL1       -0.3045
     13 C          68.3413   92.4109   13.6806 C.ar    1  UNL1        0.0983
     14 C          68.7790   92.5877   15.1044 C.ar    1  UNL1        0.1193
     15 N          67.8128   93.5194   15.7741 N.ar    1  UNL1       -0.2223
     16 C          66.7780   93.9184   14.7641 C.ar    1  UNL1        0.1788
     17 C          66.0304   95.8569   11.5775 C.3     1  UNL1        0.0197
     18 C          66.5860   94.4998   11.2619 C.3     1  UNL1        0.0827
     19 N          67.3972   94.2924   10.0173 N.3     1  UNL1       -0.2696
     20 C          67.5549   95.4105    9.0299 C.3     1  UNL1        0.0897
     21 C          68.0507   92.9669    9.7602 C.3     1  UNL1        0.0897
     22 O          60.9729   87.0009   11.3343 O.3     1  UNL1       -0.4751
     23 C          61.1089   86.2051   10.0700 C.3     1  UNL1        0.2103
     24 C          62.2310   85.2211    9.9201 C.3     1  UNL1        0.0723
     25 C          61.9630   85.0886   11.3901 C.3     1  UNL1        0.0088
     26 C          62.7749   84.1369   12.2177 C.3     1  UNL1        0.0005
     27 C          63.8548   83.3176   11.5754 C.3     1  UNL1        0.0000
     28 C          64.1228   83.4501   10.1055 C.3     1  UNL1        0.0005
     29 C          63.3110   84.4018    9.2779 C.3     1  UNL1        0.0088
     30 C          62.1093   85.6954    8.5023 C.2     1  UNL1        0.0532
     31 O          61.1205   86.7676    8.1524 O.co2   1  UNL1       -0.5491
     32 O          62.9765   85.0973    7.4344 O.co2   1  UNL1       -0.5491
@<TRIPOS>UNITY_ATOM_ATTR
31 1
charge -1
@<TRIPOS>BOND
     1    18    17    1
     2    18    11    1
     3    11     1    1
     4     1     2   ar
     5     2     3   ar
     6     3     4   ar
     7     4     5   ar
     8     5     6   ar
     9     6    22    1
    10    22    23    1
    11    23    24    1
    12    24    30    1
    13    30    31   ar
    14    30    32   ar
    15    24    25    1
    16    25    26    1
    17    26    27    1
    18    27    28    1
    19    28    29    1
    20     6     7   ar
    21     7     8   ar
    22     8     9   ar
    23     9    10   ar
    24    11    12    1
    25    12    13   ar
    26    13    14   ar
    27    14    15   ar
    28    15    16   ar
    29    18    19    1
    30    19    20    1
    31    19    21    1
    32    10     1   ar
    33    16    12   ar
    34     9     4   ar
    35    29    24    1
@<TRIPOS>MOLECULE
*****
 32 35 0 0 0
SMALL
GASTEIGER

@<TRIPOS>ATOM
      1 C          63.5062   85.6535   12.8925 C.ar    1  UNL1       -0.0004
      2 C          64.2387   85.6205   14.2011 C.ar    1  UNL1       -0.0024
      3 C          64.6340   86.9026   14.8719 C.ar    1  UNL1       -0.0002
      4 C          64.2968   88.2177   14.2341 C.ar    1  UNL1        0.0030
      5 C          64.6921   89.4998   14.9049 C.ar    1  UNL1        0.0369
      6 C          64.3550   90.8149   14.2671 C.ar    1  UNL1        0.1386
      7 C          63.6225   90.8479   12.9584 C.ar    1  UNL1        0.0369
      8 C          63.2272   89.5658   12.2877 C.ar    1  UNL1        0.0031
      9 C          63.5644   88.2507   12.9255 C.ar    1  UNL1       -0.0001
     10 C          63.1691   86.9686   12.2547 C.ar    1  UNL1       -0.0024
     11 C          63.1109   84.3714   12.2217 C.3     1  UNL1        0.1240
     12 N          62.5710   83.2339   13.0369 N.ar    1  UNL1       -0.3045
     13 C          62.2939   81.8462   12.5394 C.ar    1  UNL1        0.0983
     14 C          61.7651   81.0390   13.6877 C.ar    1  UNL1        0.1193
     15 N          61.7154   81.9278   14.8950 N.ar    1  UNL1       -0.2223
     16 C          62.2135   83.2843   14.4928 C.ar    1  UNL1        0.1788
     17 C          64.1782   83.1885   10.1694 C.3     1  UNL1        0.0197
     18 C          63.2555   84.2268   10.7357 C.3     1  UNL1        0.0827
     19 N          62.4775   85.1206    9.8160 N.3     1  UNL1       -0.2696
     20 C          61.1952   85.7435   10.2829 C.3     1  UNL1        0.0897
     21 C          62.9816   85.3914    8.4295 C.3     1  UNL1        0.0897
     22 O          64.7502   92.0970   14.9379 O.3     1  UNL1       -0.4751
     23 C          65.6769   93.0515   14.2447 C.3     1  UNL1        0.2103
     24 C          66.8429   92.5280   13.4597 C.3     1  UNL1        0.0723
     25 C          65.9215   92.9047   12.3375 C.3     1  UNL1        0.0088
     26 C          66.3455   92.6903   10.9148 C.3     1  UNL1        0.0005
     27 C          67.6910   92.0991   10.6141 C.3     1  UNL1        0.0000
     28 C          68.6123   91.7224   11.7363 C.3     1  UNL1        0.0005
     29 C          68.1883   91.9368   13.1590 C.3     1  UNL1        0.0088
     30 C          67.3593   92.3331   14.8544 C.2     1  UNL1        0.0532
     31 O          67.4722   93.5056   15.7830 O.co2   1  UNL1       -0.5491
     32 O          67.7629   90.9656   15.3205 O.co2   1  UNL1       -0.5491
@<TRIPOS>UNITY_ATOM_ATTR
31 1
charge -1
@<TRIPOS>BOND
     1    18    17    1
     2    18    11    1
     3    11     1    1
     4     1     2   ar
     5     2     3   ar
     6     3     4   ar
     7     4     5   ar
     8     5     6   ar
     9     6    22    1
    10    22    23    1
    11    23    24    1
    12    24    30    1
    13    30    31   ar
    14    30    32   ar
    15    24    25    1
    16    25    26    1
    17    26    27    1
    18    27    28    1
    19    28    29    1
    20     6     7   ar
    21     7     8   ar
    22     8     9   ar
    23     9    10   ar
    24    11    12    1
    25    12    13   ar
    26    13    14   ar
    27    14    15   ar
    28    15    16   ar
    29    18    19    1
    30    19    20    1
    31    19    21    1
    32    10     1   ar
    33    16    12   ar
    34     9     4   ar
    35    29    24    1
@<TRIPOS>MOLECULE
*****
 32 35 0 0 0
SMALL
GASTEIGER

@<TRIPOS>ATOM
      1 C          65.0610   91.3050   13.3033 C.ar    1  UNL1       -0.0004
      2 C          64.1541   91.2252   12.1112 C.ar    1  UNL1       -0.0024
      3 C          63.4178   89.9529   11.8128 C.ar    1  UNL1       -0.0002
      4 C          63.5883   88.7604   12.7065 C.ar    1  UNL1        0.0030
      5 C          62.8520   87.4880   12.4081 C.ar    1  UNL1        0.0369
      6 C          63.0225   86.2955   13.3018 C.ar    1  UNL1        0.1386
      7 C          63.9295   86.3753   14.4940 C.ar    1  UNL1        0.0369
      8 C          64.6658   87.6476   14.7924 C.ar    1  UNL1        0.0031
      9 C          64.4952   88.8401   13.8986 C.ar    1  UNL1       -0.0001
     10 C          65.2315   90.1124   14.1970 C.ar    1  UNL1       -0.0024
     11 C          65.7973   92.5773   13.6017 C.3     1  UNL1        0.1240
     12 N          65.8890   93.6527   12.5601 N.ar    1  UNL1       -0.3045
     13 C          65.5639   93.4997   11.1037 C.ar    1  UNL1        0.0983
     14 C          65.7959   94.8224   10.4354 C.ar    1  UNL1        0.1193
     15 N          66.2645   95.7930   11.4787 N.ar    1  UNL1       -0.2223
     16 C          66.3220   95.0701   12.7918 C.ar    1  UNL1        0.1788
     17 C          65.6001   92.7958   16.1831 C.3     1  UNL1        0.0197
     18 C          66.4419   92.7742   14.9417 C.3     1  UNL1        0.0827
     19 N          67.9284   92.9494   15.0405 N.3     1  UNL1       -0.2696
     20 C          68.5037   93.9497   15.9989 C.3     1  UNL1        0.0897
     21 C          68.8396   92.1243   14.1809 C.3     1  UNL1        0.0897
     22 O          62.2862   85.0232   13.0035 O.3     1  UNL1       -0.4751
     23 C          62.6771   83.7506   13.6947 C.3     1  UNL1        0.2103
     24 C          62.6886   82.4574   12.9349 C.3     1  UNL1        0.0723
     25 C          63.3035   83.3659   11.9120 C.3     1  UNL1        0.0088
     26 C          63.7149   82.8216   10.5762 C.3     1  UNL1        0.0005
     27 C          63.5114   81.3687   10.2632 C.3     1  UNL1        0.0000
     28 C          62.8964   80.4603   11.2862 C.3     1  UNL1        0.0005
     29 C          62.4850   81.0046   12.6220 C.3     1  UNL1        0.0088
     30 C          62.0697   81.9980   14.2217 C.2     1  UNL1        0.0532
     31 O          60.9472   81.0032   14.2010 O.co2   1  UNL1       -0.5491
     32 O          62.5732   82.5336   15.5293 O.co2   1  UNL1       -0.5491
@<TRIPOS>UNITY_ATOM_ATTR
31 1
charge -1
@<TRIPOS>BOND
     1    18    17    1
     2    18    11    1
     3    11     1    1
     4     1     2   ar
     5     2     3   ar
     6     3     4   ar
     7     4     5   ar
     8     5     6   ar
     9     6    22    1
    10    22    23    1
    11    23    24    1
    12    24    30    1
    13    30    31   ar
    14    30    32   ar
    15    24    25    1
    16    25    26    1
    17    26    27    1
    18    27    28    1
    19    28    29    1
    20     6     7   ar
    21     7     8   ar
    22     8     9   ar
    23     9    10   ar
    24    11    12    1
    25    12    13   ar
    26    13    14   ar
    27    14    15   ar
    28    15    16   ar
    29    18    19    1
    30    19    20    1
    31    19    21    1
    32    10     1   ar
    33    16    12   ar
    34     9     4   ar
    35    29    24    1
@<TRIPOS>MOLECULE
*****
 32 35 0 0 0
SMALL
GASTEIGER

@<TRIPOS>ATOM
      1 C          63.0857   85.2775   12.8377 C.ar    1  UNL1       -0.0004
      2 C          62.4853   86.0001   11.6684 C.ar    1  UNL1       -0.0024
      3 C          62.6056   87.4917   11.5664 C.ar    1  UNL1       -0.0002
      4 C          63.3263   88.2608   12.6337 C.ar    1  UNL1        0.0030
      5 C          63.4465   89.7525   12.5317 C.ar    1  UNL1        0.0369
      6 C          64.1672   90.5216   13.5990 C.ar    1  UNL1        0.1386
      7 C          64.7676   89.7989   14.7683 C.ar    1  UNL1        0.0369
      8 C          64.6473   88.3073   14.8703 C.ar    1  UNL1        0.0031
      9 C          63.9267   87.5382   13.8030 C.ar    1  UNL1       -0.0001
     10 C          63.8064   86.0465   13.9050 C.ar    1  UNL1       -0.0024
     11 C          62.9655   83.7857   12.9397 C.3     1  UNL1        0.1240
     12 N          63.3830   82.9192   11.7888 N.ar    1  UNL1       -0.3045
     13 C          62.6812   81.6798   11.3182 C.ar    1  UNL1        0.0983
     14 C          63.4402   81.1345   10.1449 C.ar    1  UNL1        0.1193
     15 N          64.6110   82.0369    9.8903 N.ar    1  UNL1       -0.2223
     16 C          64.5757   83.1398   10.9063 C.ar    1  UNL1        0.1788
     17 C          62.0036   84.0275   15.3411 C.3     1  UNL1        0.0197
     18 C          62.4277   83.1606   14.1927 C.3     1  UNL1        0.0827
     19 N          62.3139   81.6686   14.2974 N.3     1  UNL1       -0.2696
     20 C          63.5480   80.8321   14.4631 C.3     1  UNL1        0.0897
     21 C          60.9662   81.0131   14.2364 C.3     1  UNL1        0.0897
     22 O          64.2875   92.0132   13.4970 O.3     1  UNL1       -0.4751
     23 C          65.6094   92.6778   13.7443 C.3     1  UNL1        0.2103
     24 C          66.7493   92.4564   12.7948 C.3     1  UNL1        0.0723
     25 C          65.6331   92.6710   11.8160 C.3     1  UNL1        0.0088
     26 C          65.9070   92.6164   10.3423 C.3     1  UNL1        0.0005
     27 C          67.2972   92.3472    9.8473 C.3     1  UNL1        0.0000
     28 C          68.4134   92.1326   10.8261 C.3     1  UNL1        0.0005
     29 C          68.1395   92.1872   12.2998 C.3     1  UNL1        0.0088
     30 C          67.4696   92.3187   14.1033 C.2     1  UNL1        0.0532
     31 O          68.9680   92.2552   14.1315 O.co2   1  UNL1       -0.5491
     32 O          66.6915   92.2445   15.3836 O.co2   1  UNL1       -0.5491
@<TRIPOS>UNITY_ATOM_ATTR
31 1
charge -1
@<TRIPOS>BOND
     1    18    17    1
     2    18    11    1
     3    11     1    1
     4     1     2   ar
     5     2     3   ar
     6     3     4   ar
     7     4     5   ar
     8     5     6   ar
     9     6    22    1
    10    22    23    1
    11    23    24    1
    12    24    30    1
    13    30    31   ar
    14    30    32   ar
    15    24    25    1
    16    25    26    1
    17    26    27    1
    18    27    28    1
    19    28    29    1
    20     6     7   ar
    21     7     8   ar
    22     8     9   ar
    23     9    10   ar
    24    11    12    1
    25    12    13   ar
    26    13    14   ar
    27    14    15   ar
    28    15    16   ar
    29    18    19    1
    30    19    20    1
    31    19    21    1
    32    10     1   ar
    33    16    12   ar
    34     9     4   ar
    35    29    24    1
