@<TRIPOS>MOLECULE
*****
 33 36 0 0 0
SMALL
GASTEIGER

@<TRIPOS>ATOM
      1 C          64.1430   89.1922   14.6081 C.ar    1  UNL1        0.1074
      2 C          63.6755   89.2064   16.0334 C.ar    1  UNL1        0.0588
      3 S          63.2715   87.8098   16.4025 S.2     1  UNL1       -0.0508
      4 C          63.4892   86.9325   15.2054 C.ar    1  UNL1        0.1646
      5 N          64.0278   87.7869   14.0965 N.ar    1  UNL1       -0.2224
      6 C          66.3638   92.2906   13.5044 C.ar    1  UNL1        0.2416
      7 N          65.8682   91.1072   14.2815 N.ar    1  UNL1       -0.2089
      8 C          64.6386   90.3757   13.8310 C.ar    1  UNL1        0.1026
      9 C          63.9046   90.8275   12.6034 C.ar    1  UNL1        0.0224
     10 C          64.4002   92.0109   11.8263 C.ar    1  UNL1        0.0239
     11 C          65.6298   92.7424   12.2768 C.ar    1  UNL1        0.1189
     12 N          66.1254   93.9259   11.4996 N.ar    1  UNL1       -0.2826
     13 C          66.1939   95.3401   11.9949 C.ar    1  UNL1        0.1826
     14 N          66.7503   96.1910   10.8921 N.ar    1  UNL1       -0.2280
     15 C          67.0257   95.3028    9.7151 C.ar    1  UNL1        0.0786
     16 C          67.5885   95.7381    8.3946 C.3     1  UNL1        0.0538
     17 C          66.6394   93.9029   10.0906 C.ar    1  UNL1        0.0963
     18 C          67.7013   93.5070   15.3702 C.3     1  UNL1        0.2543
     19 O          67.5934   93.0221   13.9549 O.3     1  UNL1       -0.4551
     20 N          63.2163   85.4594   15.1305 N.pl3   1  UNL1       -0.2784
     21 H          63.1518   84.9281   15.9568 H       1  UNL1        0.1555
     22 C          63.0415   84.7959   13.7966 C.ar    1  UNL1        0.1318
     23 C          63.2350   85.4437   12.4576 C.ar    1  UNL1        0.0505
     24 C          62.9557   84.4164   11.4009 C.ar    1  UNL1        0.0807
     25 N          62.5897   83.1337   12.0869 N.ar    1  UNL1       -0.1725
     26 N          62.6427   83.3682   13.5675 N.ar    1  UNL1       -0.2350
     27 C          63.0295   84.6337    9.9186 C.3     1  UNL1        0.0372
     28 C          63.9330   83.4433    9.7891 C.3     1  UNL1        0.0060
     29 C          62.1260   85.8240   10.0481 C.3     1  UNL1        0.0060
     30 C          63.1033   84.8509    8.4362 C.3     1  UNL1        0.0060
     31 C          62.3486   82.3532   14.6321 C.3     1  UNL1        0.1669
     32 C          61.6958   81.0527   14.2685 C.3     1  UNL1        0.2195
     33 F          60.2017   80.9257   14.3111 F       1  UNL1       -0.2321
@<TRIPOS>BOND
     1    18    19    1
     2    19     6    1
     3     6     7   ar
     4     7     8   ar
     5     8     1    1
     6     1     2   ar
     7     2     3   ar
     8     3     4   ar
     9     4    20    1
    10    20    22    1
    11    22    23   ar
    12    23    24   ar
    13    24    27    1
    14    27    28    1
    15    27    29    1
    16    27    30    1
    17    24    25   ar
    18    25    26   ar
    19    26    31    1
    20    31    32    1
    21    32    33    1
    22     4     5   ar
    23     8     9   ar
    24     9    10   ar
    25    10    11   ar
    26    11    12    1
    27    12    13   ar
    28    13    14   ar
    29    14    15   ar
    30    15    16    1
    31    15    17   ar
    32    11     6   ar
    33    17    12   ar
    34     5     1   ar
    35    26    22   ar
    36    20    21    1
@<TRIPOS>MOLECULE
*****
 33 36 0 0 0
SMALL
GASTEIGER

@<TRIPOS>ATOM
      1 C          62.6530   88.0185   11.8668 C.ar    1  UNL1        0.1074
      2 C          61.8430   88.9066   10.9694 C.ar    1  UNL1        0.0588
      3 S          62.1438   90.3306   11.3323 S.2     1  UNL1       -0.0508
      4 C          63.1398   90.3226   12.4539 C.ar    1  UNL1        0.1646
      5 N          63.4545   88.8937   12.7842 N.ar    1  UNL1       -0.2224
      6 C          63.0563   84.2566   13.0647 C.ar    1  UNL1        0.2416
      7 N          63.0490   85.7564   13.0817 N.ar    1  UNL1       -0.2089
      8 C          62.6603   86.5186   11.8497 C.ar    1  UNL1        0.1026
      9 C          62.2789   85.7809   10.6005 C.ar    1  UNL1        0.0224
     10 C          62.2863   84.2811   10.5835 C.ar    1  UNL1        0.0239
     11 C          62.6750   83.5189   11.8156 C.ar    1  UNL1        0.1189
     12 N          62.6823   82.0189   11.7985 N.ar    1  UNL1       -0.2826
     13 C          62.4718   81.1227   12.9826 C.ar    1  UNL1        0.1826
     14 N          62.5608   79.7018   12.5102 N.ar    1  UNL1       -0.2280
     15 C          62.8263   79.7199   11.0339 C.ar    1  UNL1        0.0786
     16 C          62.9883   78.5172   10.1524 C.3     1  UNL1        0.0538
     17 C          62.9014   81.1520   10.5941 C.ar    1  UNL1        0.0963
     18 C          62.7292   83.7451   15.5908 C.3     1  UNL1        0.2543
     19 O          63.4450   83.4944   14.2967 O.3     1  UNL1       -0.4551
     20 N          63.7193   91.5314   13.1271 N.pl3   1  UNL1       -0.2784
     21 H          63.2543   91.9384   13.8934 H       1  UNL1        0.1555
     22 C          65.0073   92.1200   12.6325 C.ar    1  UNL1        0.1318
     23 C          65.3131   92.5074   11.2160 C.ar    1  UNL1        0.0505
     24 C          66.7104   93.0514   11.1756 C.ar    1  UNL1        0.0807
     25 N          67.2682   93.0001   12.5671 N.ar    1  UNL1       -0.1725
     26 N          66.2156   92.4244   13.4675 N.ar    1  UNL1       -0.2350
     27 C          67.4246   93.5577    9.9576 C.3     1  UNL1        0.0372
     28 C          66.7613   94.8928   10.1237 C.3     1  UNL1        0.0060
     29 C          68.0878   92.2226    9.7915 C.3     1  UNL1        0.0060
     30 C          68.1387   94.0641    8.7395 C.3     1  UNL1        0.0060
     31 C          66.3481   92.1938   14.9437 C.3     1  UNL1        0.1669
     32 C          67.3598   92.9676   15.7359 C.3     1  UNL1        0.2195
     33 F          68.4047   92.2417   16.5306 F       1  UNL1       -0.2321
@<TRIPOS>BOND
     1    18    19    1
     2    19     6    1
     3     6     7   ar
     4     7     8   ar
     5     8     1    1
     6     1     2   ar
     7     2     3   ar
     8     3     4   ar
     9     4    20    1
    10    20    22    1
    11    22    23   ar
    12    23    24   ar
    13    24    27    1
    14    27    28    1
    15    27    29    1
    16    27    30    1
    17    24    25   ar
    18    25    26   ar
    19    26    31    1
    20    31    32    1
    21    32    33    1
    22     4     5   ar
    23     8     9   ar
    24     9    10   ar
    25    10    11   ar
    26    11    12    1
    27    12    13   ar
    28    13    14   ar
    29    14    15   ar
    30    15    16    1
    31    15    17   ar
    32    11     6   ar
    33    17    12   ar
    34     5     1   ar
    35    26    22   ar
    36    20    21    1
@<TRIPOS>MOLECULE
*****
 33 36 0 0 0
SMALL
GASTEIGER

@<TRIPOS>ATOM
      1 C          64.1773   89.2910   14.8527 C.ar    1  UNL1        0.1074
      2 C          63.3127   89.4118   16.0725 C.ar    1  UNL1        0.0588
      3 S          63.0741   88.0320   16.6101 S.2     1  UNL1       -0.0508
      4 C          63.7913   87.0583   15.7226 C.ar    1  UNL1        0.1646
      5 N          64.4731   87.8364   14.6365 N.ar    1  UNL1       -0.2224
      6 C          66.3742   92.3240   13.5396 C.ar    1  UNL1        0.2416
      7 N          65.8903   91.1896   14.3932 N.ar    1  UNL1       -0.2089
      8 C          64.6612   90.4255   13.9990 C.ar    1  UNL1        0.1026
      9 C          63.9160   90.7959   12.7510 C.ar    1  UNL1        0.0224
     10 C          64.3999   91.9303   11.8974 C.ar    1  UNL1        0.0239
     11 C          65.6290   92.6944   12.2917 C.ar    1  UNL1        0.1189
     12 N          66.1129   93.8289   11.4379 N.ar    1  UNL1       -0.2826
     13 C          66.1906   95.2698   11.8476 C.ar    1  UNL1        0.1826
     14 N          66.7297   96.0531   10.6875 N.ar    1  UNL1       -0.2280
     15 C          66.9852   95.0963    9.5608 C.ar    1  UNL1        0.0786
     16 C          67.5268   95.4517    8.2079 C.3     1  UNL1        0.0538
     17 C          66.6040   93.7217   10.0246 C.ar    1  UNL1        0.0963
     18 C          68.4533   92.6059   15.0718 C.3     1  UNL1        0.2543
     19 O          67.6033   93.0881   13.9339 O.3     1  UNL1       -0.4551
     20 N          63.8214   85.5681   15.8916 N.pl3   1  UNL1       -0.2784
     21 H          64.1084   85.1755   16.7476 H       1  UNL1        0.1555
     22 C          63.4143   84.6762   14.7564 C.ar    1  UNL1        0.1318
     23 C          63.2309   83.1891   14.8256 C.ar    1  UNL1        0.0505
     24 C          62.8224   82.7086   13.4646 C.ar    1  UNL1        0.0807
     25 N          62.7534   83.8988   12.5543 N.ar    1  UNL1       -0.1725
     26 N          63.1192   85.1148   13.3527 N.ar    1  UNL1       -0.2350
     27 C          62.5337   81.2874   13.0813 C.3     1  UNL1        0.0372
     28 C          63.3563   81.4556   11.8383 C.3     1  UNL1        0.0060
     29 C          61.7111   81.1192   14.3243 C.3     1  UNL1        0.0060
     30 C          62.2450   79.8663   12.6979 C.3     1  UNL1        0.0060
     31 C          63.1792   86.5224   12.8377 C.3     1  UNL1        0.1669
     32 C          62.4710   86.8868   11.5667 C.3     1  UNL1        0.2195
     33 F          62.7429   88.2071   10.9087 F       1  UNL1       -0.2321
@<TRIPOS>BOND
     1    18    19    1
     2    19     6    1
     3     6     7   ar
     4     7     8   ar
     5     8     1    1
     6     1     2   ar
     7     2     3   ar
     8     3     4   ar
     9     4    20    1
    10    20    22    1
    11    22    23   ar
    12    23    24   ar
    13    24    27    1
    14    27    28    1
    15    27    29    1
    16    27    30    1
    17    24    25   ar
    18    25    26   ar
    19    26    31    1
    20    31    32    1
    21    32    33    1
    22     4     5   ar
    23     8     9   ar
    24     9    10   ar
    25    10    11   ar
    26    11    12    1
    27    12    13   ar
    28    13    14   ar
    29    14    15   ar
    30    15    16    1
    31    15    17   ar
    32    11     6   ar
    33    17    12   ar
    34     5     1   ar
    35    26    22   ar
    36    20    21    1
@<TRIPOS>MOLECULE
*****
 33 36 0 0 0
SMALL
GASTEIGER

@<TRIPOS>ATOM
      1 C          63.8717   88.4396   14.2598 C.ar    1  UNL1        0.1074
      2 C          63.6839   88.9652   15.6521 C.ar    1  UNL1        0.0588
      3 S          63.9665   90.4382   15.6335 S.2     1  UNL1       -0.0508
      4 C          64.3290   90.8230   14.2297 C.ar    1  UNL1        0.1646
      5 N          64.2704   89.5878   13.3807 N.ar    1  UNL1       -0.2224
      6 C          62.7633   85.2833   12.1244 C.ar    1  UNL1        0.2416
      7 N          62.9427   86.7071   12.5611 N.ar    1  UNL1       -0.2089
      8 C          63.6923   87.0157   13.8231 C.ar    1  UNL1        0.1026
      9 C          64.2626   85.9006   14.6485 C.ar    1  UNL1        0.0224
     10 C          64.0832   84.4769   14.2119 C.ar    1  UNL1        0.0239
     11 C          63.3335   84.1682   12.9498 C.ar    1  UNL1        0.1189
     12 N          63.1542   82.7444   12.5132 N.ar    1  UNL1       -0.2826
     13 C          62.8065   81.5869   13.4016 C.ar    1  UNL1        0.1826
     14 N          62.7284   80.3553   12.5489 N.ar    1  UNL1       -0.2280
     15 C          63.0279   80.7516   11.1335 C.ar    1  UNL1        0.0786
     16 C          63.0588   79.8327    9.9483 C.3     1  UNL1        0.0538
     17 C          63.2910   82.2282   11.1115 C.ar    1  UNL1        0.0963
     18 C          61.2770   86.0648   10.1420 C.3     1  UNL1        0.2543
     19 O          62.0136   84.9747   10.8624 O.3     1  UNL1       -0.4551
     20 N          64.6871   92.2010   13.7578 N.pl3   1  UNL1       -0.2784
     21 H          64.1576   92.9761   14.0547 H       1  UNL1        0.1555
     22 C          65.8521   92.3981   12.8336 C.ar    1  UNL1        0.1318
     23 C          65.7870   92.9387   11.4359 C.ar    1  UNL1        0.0505
     24 C          67.1813   92.9640   10.8833 C.ar    1  UNL1        0.0807
     25 N          68.1080   92.4390   11.9395 N.ar    1  UNL1       -0.1725
     26 N          67.2865   92.0892   13.1448 N.ar    1  UNL1       -0.2350
     27 C          67.5790   93.4320    9.5148 C.3     1  UNL1        0.0372
     28 C          66.7455   94.6661    9.6947 C.3     1  UNL1        0.0060
     29 C          68.4125   92.1980    9.3350 C.3     1  UNL1        0.0060
     30 C          67.9766   93.9001    8.1463 C.3     1  UNL1        0.0060
     31 C          67.8080   91.5290   14.4349 C.3     1  UNL1        0.1669
     32 C          67.8465   92.3876   15.6642 C.3     1  UNL1        0.2195
     33 F          69.0802   92.4216   16.5169 F       1  UNL1       -0.2321
@<TRIPOS>BOND
     1    18    19    1
     2    19     6    1
     3     6     7   ar
     4     7     8   ar
     5     8     1    1
     6     1     2   ar
     7     2     3   ar
     8     3     4   ar
     9     4    20    1
    10    20    22    1
    11    22    23   ar
    12    23    24   ar
    13    24    27    1
    14    27    28    1
    15    27    29    1
    16    27    30    1
    17    24    25   ar
    18    25    26   ar
    19    26    31    1
    20    31    32    1
    21    32    33    1
    22     4     5   ar
    23     8     9   ar
    24     9    10   ar
    25    10    11   ar
    26    11    12    1
    27    12    13   ar
    28    13    14   ar
    29    14    15   ar
    30    15    16    1
    31    15    17   ar
    32    11     6   ar
    33    17    12   ar
    34     5     1   ar
    35    26    22   ar
    36    20    21    1
@<TRIPOS>MOLECULE
*****
 33 36 0 0 0
SMALL
GASTEIGER

@<TRIPOS>ATOM
      1 C          62.7731   88.8433   11.2891 C.ar    1  UNL1        0.1074
      2 C          61.9199   89.4727   10.2281 C.ar    1  UNL1        0.0588
      3 S          62.3229   90.9120   10.1026 S.2     1  UNL1       -0.0508
      4 C          63.4252   91.1723   11.0861 C.ar    1  UNL1        0.1646
      5 N          63.7034   89.8937   11.8194 N.ar    1  UNL1       -0.2224
      6 C          63.3823   85.5531   13.4232 C.ar    1  UNL1        0.2416
      7 N          63.4479   86.9820   12.9716 N.ar    1  UNL1       -0.2089
      8 C          62.7075   87.4143   11.7407 C.ar    1  UNL1        0.1026
      9 C          61.9016   86.4177   10.9614 C.ar    1  UNL1        0.0224
     10 C          61.8361   84.9888   11.4130 C.ar    1  UNL1        0.0239
     11 C          62.5765   84.5565   12.6439 C.ar    1  UNL1        0.1189
     12 N          62.5109   83.1276   13.0955 N.ar    1  UNL1       -0.2826
     13 C          62.2994   82.6568   14.5039 C.ar    1  UNL1        0.1826
     14 N          62.3031   81.1568   14.4967 N.ar    1  UNL1       -0.2280
     15 C          62.5169   80.7005   13.0838 C.ar    1  UNL1        0.0786
     16 C          62.5895   79.2764   12.6187 C.3     1  UNL1        0.0538
     17 C          62.6453   81.9185   12.2178 C.ar    1  UNL1        0.0963
     18 C          63.7787   85.7201   15.9854 C.3     1  UNL1        0.2543
     19 O          64.1227   85.1209   14.6540 O.3     1  UNL1       -0.4551
     20 N          64.1262   92.4812   11.2988 N.pl3   1  UNL1       -0.2784
     21 H          63.7298   93.3137   10.9538 H       1  UNL1        0.1555
     22 C          65.4311   92.5217   12.0374 C.ar    1  UNL1        0.1318
     23 C          65.6087   92.3936   13.5213 C.ar    1  UNL1        0.0505
     24 C          67.0749   92.4902   13.8228 C.ar    1  UNL1        0.0807
     25 N          67.8035   92.6780   12.5252 N.ar    1  UNL1       -0.1725
     26 N          66.7876   92.6975   11.4217 N.ar    1  UNL1       -0.2350
     27 C          67.7023   92.4126   15.1831 C.3     1  UNL1        0.0372
     28 C          66.3471   92.5311   15.8150 C.3     1  UNL1        0.0060
     29 C          69.0576   92.2942   14.5512 C.3     1  UNL1        0.0060
     30 C          68.3297   92.3350   16.5434 C.3     1  UNL1        0.0060
     31 C          67.0773   92.8636    9.9594 C.3     1  UNL1        0.1669
     32 C          67.2917   94.2339    9.3883 C.3     1  UNL1        0.2195
     33 F          67.3423   95.4259   10.2975 F       1  UNL1       -0.2321
@<TRIPOS>BOND
     1    18    19    1
     2    19     6    1
     3     6     7   ar
     4     7     8   ar
     5     8     1    1
     6     1     2   ar
     7     2     3   ar
     8     3     4   ar
     9     4    20    1
    10    20    22    1
    11    22    23   ar
    12    23    24   ar
    13    24    27    1
    14    27    28    1
    15    27    29    1
    16    27    30    1
    17    24    25   ar
    18    25    26   ar
    19    26    31    1
    20    31    32    1
    21    32    33    1
    22     4     5   ar
    23     8     9   ar
    24     9    10   ar
    25    10    11   ar
    26    11    12    1
    27    12    13   ar
    28    13    14   ar
    29    14    15   ar
    30    15    16    1
    31    15    17   ar
    32    11     6   ar
    33    17    12   ar
    34     5     1   ar
    35    26    22   ar
    36    20    21    1
@<TRIPOS>MOLECULE
*****
 33 36 0 0 0
SMALL
GASTEIGER

@<TRIPOS>ATOM
      1 C          64.2820   89.1125   14.5837 C.ar    1  UNL1        0.1074
      2 C          63.6158   89.8068   15.7344 C.ar    1  UNL1        0.0588
      3 S          64.1439   91.2093   15.7981 S.2     1  UNL1       -0.0508
      4 C          65.1365   91.3818   14.6867 C.ar    1  UNL1        0.1646
      5 N          65.2218   90.0859   13.9362 N.ar    1  UNL1       -0.2224
      6 C          63.1143   85.9879   12.4334 C.ar    1  UNL1        0.2416
      7 N          63.3471   87.4065   12.8616 N.ar    1  UNL1       -0.2089
      8 C          64.0492   87.6938   14.1556 C.ar    1  UNL1        0.1026
      9 C          64.5185   86.5625   15.0215 C.ar    1  UNL1        0.0224
     10 C          64.2857   85.1439   14.5934 C.ar    1  UNL1        0.0239
     11 C          63.5836   84.8566   13.2994 C.ar    1  UNL1        0.1189
     12 N          63.3508   83.4379   12.8713 N.ar    1  UNL1       -0.2826
     13 C          63.6487   82.8654   11.5172 C.ar    1  UNL1        0.1826
     14 N          63.2612   81.4163   11.5312 N.ar    1  UNL1       -0.2280
     15 C          62.7239   81.0933   12.8939 C.ar    1  UNL1        0.0786
     16 C          62.2197   79.7557   13.3486 C.3     1  UNL1        0.0538
     17 C          62.7792   82.3427   13.7221 C.ar    1  UNL1        0.0963
     18 C          61.1462   86.4279   10.7954 C.3     1  UNL1        0.2543
     19 O          62.4122   85.7006   11.1394 O.3     1  UNL1       -0.4551
     20 N          65.9082   92.6309   14.3798 N.pl3   1  UNL1       -0.2784
     21 H          66.4431   93.0645   15.0834 H       1  UNL1        0.1555
     22 C          65.8649   93.2194   13.0007 C.ar    1  UNL1        0.1318
     23 C          66.6271   94.4231   12.5314 C.ar    1  UNL1        0.0505
     24 C          66.2852   94.6552   11.0895 C.ar    1  UNL1        0.0807
     25 N          65.3116   93.5949   10.6676 N.ar    1  UNL1       -0.1725
     26 N          65.0519   92.7075   11.8488 N.ar    1  UNL1       -0.2350
     27 C          66.8224   95.7545   10.2218 C.3     1  UNL1        0.0372
     28 C          67.5455   94.7409    9.3853 C.3     1  UNL1        0.0060
     29 C          66.0993   96.7681   11.0583 C.3     1  UNL1        0.0060
     30 C          67.3596   96.8538    9.3542 C.3     1  UNL1        0.0060
     31 C          64.1394   91.5173   11.8736 C.3     1  UNL1        0.1669
     32 C          63.2707   91.2134   10.6892 C.3     1  UNL1        0.2195
     33 F          63.1109   89.7976   10.2199 F       1  UNL1       -0.2321
@<TRIPOS>BOND
     1    18    19    1
     2    19     6    1
     3     6     7   ar
     4     7     8   ar
     5     8     1    1
     6     1     2   ar
     7     2     3   ar
     8     3     4   ar
     9     4    20    1
    10    20    22    1
    11    22    23   ar
    12    23    24   ar
    13    24    27    1
    14    27    28    1
    15    27    29    1
    16    27    30    1
    17    24    25   ar
    18    25    26   ar
    19    26    31    1
    20    31    32    1
    21    32    33    1
    22     4     5   ar
    23     8     9   ar
    24     9    10   ar
    25    10    11   ar
    26    11    12    1
    27    12    13   ar
    28    13    14   ar
    29    14    15   ar
    30    15    16    1
    31    15    17   ar
    32    11     6   ar
    33    17    12   ar
    34     5     1   ar
    35    26    22   ar
    36    20    21    1
@<TRIPOS>MOLECULE
*****
 33 36 0 0 0
SMALL
GASTEIGER

@<TRIPOS>ATOM
      1 C          59.8263   91.5108    4.4413 C.ar    1  UNL1        0.1074
      2 C          58.3774   91.8428    4.6419 C.ar    1  UNL1        0.0588
      3 S          57.8207   90.8923    5.6601 S.2     1  UNL1       -0.0508
      4 C          58.9256   89.9728    6.0887 C.ar    1  UNL1        0.1646
      5 N          60.1651   90.3550    5.3355 N.ar    1  UNL1       -0.2224
      6 C          61.2600   94.1241    1.8212 C.ar    1  UNL1        0.2416
      7 N          60.3157   93.4234    2.7524 N.ar    1  UNL1       -0.2089
      8 C          60.7707   92.2114    3.5100 C.ar    1  UNL1        0.1026
      9 C          62.1701   91.7001    3.3363 C.ar    1  UNL1        0.0224
     10 C          63.1144   92.4007    2.4051 C.ar    1  UNL1        0.0239
     11 C          62.6593   93.6127    1.6475 C.ar    1  UNL1        0.1189
     12 N          63.6037   94.3134    0.7162 N.ar    1  UNL1       -0.2826
     13 C          64.9068   94.9513    1.0973 C.ar    1  UNL1        0.1826
     14 N          65.5192   95.5313   -0.1431 N.ar    1  UNL1       -0.2280
     15 C          64.5947   95.2519   -1.2908 C.ar    1  UNL1        0.0786
     16 C          64.8152   95.6545   -2.7188 C.3     1  UNL1        0.0538
     17 C          63.4109   94.4992   -0.7597 C.ar    1  UNL1        0.0963
     18 C          59.4960   95.3152    0.3313 C.3     1  UNL1        0.2543
     19 O          60.8049   95.3361    1.0636 O.3     1  UNL1       -0.4551
     20 N          58.8111   88.8655    7.0941 N.pl3   1  UNL1       -0.2784
     21 H          58.0040   88.3022    7.1161 H       1  UNL1        0.1555
     22 C          59.9262   88.6165    8.0659 C.ar    1  UNL1        0.1318
     23 C          60.5377   89.6319    8.9853 C.ar    1  UNL1        0.0505
     24 C          61.6151   88.9514    9.7765 C.ar    1  UNL1        0.0807
     25 N          61.6696   87.5155    9.3462 N.ar    1  UNL1       -0.1725
     26 N          60.6258   87.3085    8.2889 N.ar    1  UNL1       -0.2350
     27 C          62.4853   89.5940   10.8157 C.3     1  UNL1        0.0372
     28 C          62.5279   88.3031   11.5783 C.3     1  UNL1        0.0060
     29 C          62.4427   90.8850   10.0530 C.3     1  UNL1        0.0060
     30 C          63.3555   90.2367   11.8548 C.3     1  UNL1        0.0060
     31 C          60.3330   86.0198    7.5794 C.3     1  UNL1        0.1669
     32 C          61.4605   85.1437    7.1199 C.3     1  UNL1        0.2195
     33 F          61.2462   84.1731    5.9964 F       1  UNL1       -0.2321
@<TRIPOS>BOND
     1    18    19    1
     2    19     6    1
     3     6     7   ar
     4     7     8   ar
     5     8     1    1
     6     1     2   ar
     7     2     3   ar
     8     3     4   ar
     9     4    20    1
    10    20    22    1
    11    22    23   ar
    12    23    24   ar
    13    24    27    1
    14    27    28    1
    15    27    29    1
    16    27    30    1
    17    24    25   ar
    18    25    26   ar
    19    26    31    1
    20    31    32    1
    21    32    33    1
    22     4     5   ar
    23     8     9   ar
    24     9    10   ar
    25    10    11   ar
    26    11    12    1
    27    12    13   ar
    28    13    14   ar
    29    14    15   ar
    30    15    16    1
    31    15    17   ar
    32    11     6   ar
    33    17    12   ar
    34     5     1   ar
    35    26    22   ar
    36    20    21    1
@<TRIPOS>MOLECULE
*****
 33 36 0 0 0
SMALL
GASTEIGER

@<TRIPOS>ATOM
      1 C          62.5940   89.5897   11.4426 C.ar    1  UNL1        0.1074
      2 C          61.3953   90.2069   10.7851 C.ar    1  UNL1        0.0588
      3 S          60.6806   89.1318   10.0214 S.2     1  UNL1       -0.0508
      4 C          61.4375   87.8501   10.2068 C.ar    1  UNL1        0.1646
      5 N          62.6200   88.1331   11.0852 N.ar    1  UNL1       -0.2224
      6 C          65.2242   92.2883   12.6875 C.ar    1  UNL1        0.2416
      7 N          64.2268   91.5743   11.8242 N.ar    1  UNL1       -0.2089
      8 C          63.5915   90.3037   12.3060 C.ar    1  UNL1        0.1026
      9 C          63.9536   89.7471   13.6510 C.ar    1  UNL1        0.0224
     10 C          64.9510   90.4611   14.5142 C.ar    1  UNL1        0.0239
     11 C          65.5863   91.7317   14.0325 C.ar    1  UNL1        0.1189
     12 N          66.5838   92.4457   14.8958 N.ar    1  UNL1       -0.2826
     13 C          66.3608   92.9037   16.3067 C.ar    1  UNL1        0.1826
     14 N          67.6186   93.5681   16.7826 N.ar    1  UNL1       -0.2280
     15 C          68.6190   93.5207   15.6659 C.ar    1  UNL1        0.0786
     16 C          70.0140   94.0705   15.7080 C.3     1  UNL1        0.0538
     17 C          67.9795   92.8270   14.4998 C.ar    1  UNL1        0.0963
     18 C          66.4944   93.6120   10.8478 C.3     1  UNL1        0.2543
     19 O          65.8595   93.5588   12.2058 O.3     1  UNL1       -0.4551
     20 N          61.0755   86.5191    9.6174 N.pl3   1  UNL1       -0.2784
     21 H          60.2592   86.4266    9.0749 H       1  UNL1        0.1555
     22 C          61.9572   85.3290    9.8546 C.ar    1  UNL1        0.1318
     23 C          62.1884   84.6518   11.1729 C.ar    1  UNL1        0.0505
     24 C          63.1367   83.5114   10.9482 C.ar    1  UNL1        0.0807
     25 N          63.4915   83.4840    9.4911 N.ar    1  UNL1       -0.1725
     26 N          62.7626   84.6073    8.8152 N.ar    1  UNL1       -0.2350
     27 C          63.6414   82.5648   11.9966 C.3     1  UNL1        0.0372
     28 C          64.2111   83.7200   12.7654 C.3     1  UNL1        0.0060
     29 C          63.0717   81.4096   11.2279 C.3     1  UNL1        0.0060
     30 C          64.1461   81.6182   13.0450 C.3     1  UNL1        0.0060
     31 C          62.8277   84.9489    7.3560 C.3     1  UNL1        0.1669
     32 C          61.6756   84.6150    6.4555 C.3     1  UNL1        0.2195
     33 F          61.9275   84.2195    5.0306 F       1  UNL1       -0.2321
@<TRIPOS>BOND
     1    18    19    1
     2    19     6    1
     3     6     7   ar
     4     7     8   ar
     5     8     1    1
     6     1     2   ar
     7     2     3   ar
     8     3     4   ar
     9     4    20    1
    10    20    22    1
    11    22    23   ar
    12    23    24   ar
    13    24    27    1
    14    27    28    1
    15    27    29    1
    16    27    30    1
    17    24    25   ar
    18    25    26   ar
    19    26    31    1
    20    31    32    1
    21    32    33    1
    22     4     5   ar
    23     8     9   ar
    24     9    10   ar
    25    10    11   ar
    26    11    12    1
    27    12    13   ar
    28    13    14   ar
    29    14    15   ar
    30    15    16    1
    31    15    17   ar
    32    11     6   ar
    33    17    12   ar
    34     5     1   ar
    35    26    22   ar
    36    20    21    1
@<TRIPOS>MOLECULE
*****
 33 36 0 0 0
SMALL
GASTEIGER

@<TRIPOS>ATOM
      1 C          59.5929   89.2887    6.9942 C.ar    1  UNL1        0.1074
      2 C          59.3272   87.8193    6.8517 C.ar    1  UNL1        0.0588
      3 S          59.3679   87.2060    8.2199 S.2     1  UNL1       -0.0508
      4 C          59.6588   88.2963    9.2082 C.ar    1  UNL1        0.1646
      5 N          59.7979   89.5834    8.4507 N.ar    1  UNL1       -0.2224
      6 C          61.0050   91.6080    4.1000 C.ar    1  UNL1        0.2416
      7 N          60.9533   90.6089    5.2176 N.ar    1  UNL1       -0.2089
      8 C          59.6446   90.2879    5.8766 C.ar    1  UNL1        0.1026
      9 C          58.3877   90.9660    5.4181 C.ar    1  UNL1        0.0224
     10 C          58.4395   91.9651    4.3006 C.ar    1  UNL1        0.0239
     11 C          59.7481   92.2862    3.6415 C.ar    1  UNL1        0.1189
     12 N          59.7998   93.2854    2.5239 N.ar    1  UNL1       -0.2826
     13 C          60.3528   94.6770    2.6103 C.ar    1  UNL1        0.1826
     14 N          60.2023   95.3201    1.2635 N.ar    1  UNL1       -0.2280
     15 C          59.5564   94.3257    0.3447 C.ar    1  UNL1        0.0786
     16 C          59.2186   94.5496   -1.0995 C.3     1  UNL1        0.0538
     17 C          59.3077   93.0683    1.1237 C.ar    1  UNL1        0.0963
     18 C          63.3628   90.8664    3.2996 C.3     1  UNL1        0.2543
     19 O          62.3137   91.9291    3.4410 O.3     1  UNL1       -0.4551
     20 N          59.7880   88.1288   10.6932 N.pl3   1  UNL1       -0.2784
     21 H          58.9932   87.9223   11.2363 H       1  UNL1        0.1555
     22 C          61.1281   88.2761   11.3508 C.ar    1  UNL1        0.1318
     23 C          61.6970   89.5425   11.9188 C.ar    1  UNL1        0.0505
     24 C          63.0551   89.2320   12.4749 C.ar    1  UNL1        0.0807
     25 N          63.3254   87.7737   12.2505 N.ar    1  UNL1       -0.1725
     26 N          62.1345   87.1829   11.5558 N.ar    1  UNL1       -0.2350
     27 C          63.9803   90.2083   13.1388 C.3     1  UNL1        0.0372
     28 C          63.7542   91.1826   12.0210 C.3     1  UNL1        0.0060
     29 C          64.2064   89.2339   14.2566 C.3     1  UNL1        0.0060
     30 C          64.9056   91.1846   13.8027 C.3     1  UNL1        0.0060
     31 C          61.9776   85.7505   11.1392 C.3     1  UNL1        0.1669
     32 C          62.6345   85.2582    9.8839 C.3     1  UNL1        0.2195
     33 F          62.6634   86.1278    8.6619 F       1  UNL1       -0.2321
@<TRIPOS>BOND
     1    18    19    1
     2    19     6    1
     3     6     7   ar
     4     7     8   ar
     5     8     1    1
     6     1     2   ar
     7     2     3   ar
     8     3     4   ar
     9     4    20    1
    10    20    22    1
    11    22    23   ar
    12    23    24   ar
    13    24    27    1
    14    27    28    1
    15    27    29    1
    16    27    30    1
    17    24    25   ar
    18    25    26   ar
    19    26    31    1
    20    31    32    1
    21    32    33    1
    22     4     5   ar
    23     8     9   ar
    24     9    10   ar
    25    10    11   ar
    26    11    12    1
    27    12    13   ar
    28    13    14   ar
    29    14    15   ar
    30    15    16    1
    31    15    17   ar
    32    11     6   ar
    33    17    12   ar
    34     5     1   ar
    35    26    22   ar
    36    20    21    1
