@<TRIPOS>MOLECULE
*****
 52 55 0 0 0
SMALL
GASTEIGER

@<TRIPOS>ATOM
      1 N          63.7039   88.1392   12.6993 N.am    1  UNL1       -0.3042
      2 C          62.4388   87.8154   11.9612 C.2     1  UNL1        0.2404
      3 O          61.3176   88.8111   11.9220 O.2     1  UNL1       -0.2733
      4 H          64.4398   87.4857   12.7251 H       1  UNL1        0.1494
      5 C          62.2950   86.4960   11.2623 C.3     1  UNL1        0.1511
      6 N          61.4329   86.3850   10.0397 N.am    1  UNL1       -0.2824
      7 C          61.9328   85.6453    8.8343 C.2     1  UNL1        0.3046
      8 O          63.2946   85.0166    8.8515 O.2     1  UNL1       -0.2526
      9 N          61.0708   85.5342    7.6118 N.am    1  UNL1       -0.2567
     10 C          61.5706   84.7945    6.4063 C.3     1  UNL1        0.1168
     11 H          60.5391   86.7976   10.0285 H       1  UNL1        0.1514
     12 C          59.7089   86.1629    7.5946 C.3     1  UNL1        0.1413
     13 C          59.5684   87.6426    7.3933 C.ar    1  UNL1        0.0858
     14 C          59.8518   88.7024    8.4163 C.ar    1  UNL1        0.0530
     15 S          59.5784   90.0372    7.7890 S.2     1  UNL1       -0.0705
     16 C          59.1261   89.8023    6.3781 C.ar    1  UNL1        0.0875
     17 N          59.1199   88.3224    6.1337 N.ar    1  UNL1       -0.2453
     18 C          58.7466   90.8614    5.3860 C.3     1  UNL1        0.0465
     19 C          57.3002   91.1650    5.1295 C.3     1  UNL1        0.0069
     20 C          59.8134   91.6170    4.6505 C.3     1  UNL1        0.0069
     21 C          63.0131   85.2877   11.7859 C.3     1  UNL1        0.0463
     22 C          62.4102   84.4796   12.8966 C.3     1  UNL1        0.0745
     23 N          62.4796   82.9818   12.8573 N.3     1  UNL1       -0.2684
     24 C          62.2172   82.1860   14.1015 C.3     1  UNL1        0.1046
     25 C          62.2866   80.6881   14.0622 C.3     1  UNL1        0.1595
     26 O          62.6183   79.9860   12.7789 O.3     1  UNL1       -0.3508
     27 C          62.8807   80.7818   11.5347 C.3     1  UNL1        0.1595
     28 C          62.8113   82.2797   11.5739 C.3     1  UNL1        0.1046
     29 C          63.8478   89.4586   13.3982 C.3     1  UNL1        0.0777
     30 C          64.0763   89.5014   14.8801 C.3     1  UNL1        0.0459
     31 C          63.7534   88.3038   15.7237 C.ar    1  UNL1       -0.0205
     32 C          64.1743   86.9355   15.2759 C.ar    1  UNL1       -0.0042
     33 C          63.8514   85.7380   16.1194 C.ar    1  UNL1       -0.0003
     34 C          63.1076   85.9087   17.4108 C.ar    1  UNL1       -0.0000
     35 C          62.6867   87.2770   17.8586 C.ar    1  UNL1       -0.0003
     36 C          63.0096   88.4745   17.0150 C.ar    1  UNL1       -0.0042
     37 C          63.7631   90.7352   12.6152 C.3     1  UNL1        0.0415
     38 C          64.5692   91.9281   13.0362 C.3     1  UNL1        0.0984
     39 N          66.0174   92.0260   12.6578 N.am    1  UNL1       -0.2460
     40 C          66.4074   92.5848   11.3216 C.2     1  UNL1        0.4052
     41 O          65.3492   93.0458   10.3636 O.2     1  UNL1       -0.2262
     42 O          67.8556   92.6827   10.9433 O.3     1  UNL1       -0.4289
     43 C          68.2698   93.5244    9.7728 C.3     1  UNL1        0.2447
     44 C          67.4957   94.7620    9.4277 C.ar    1  UNL1        0.0714
     45 C          67.0059   95.7950   10.3987 C.ar    1  UNL1        0.1053
     46 N          66.2830   96.8554    9.6221 N.ar    1  UNL1       -0.2350
     47 C          66.3261   96.4776    8.1710 C.ar    1  UNL1        0.1343
     48 S          67.0756   95.1839    8.0509 S.2     1  UNL1       -0.0652
     49 C          67.0757   91.5651   13.6158 C.3     1  UNL1        0.0967
     50 C          66.3528   92.6662   15.8552 C.3     1  UNL1        0.0018
     51 C          67.4061   92.3917   14.8230 C.3     1  UNL1        0.0200
     52 C          68.7897   92.9440   14.9981 C.3     1  UNL1        0.0018
@<TRIPOS>BOND
     1    50    51    1
     2    51    52    1
     3    51    49    1
     4    49    39    1
     5    39    38    1
     6    38    37    1
     7    29    37    1
     8    29    30    1
     9    30    31    1
    10    31    32   ar
    11    32    33   ar
    12    33    34   ar
    13    34    35   ar
    14    35    36   ar
    15    29     1    1
    16     1     2   am
    17     2     3    2
    18     2     5    1
    19     5    21    1
    20    21    22    1
    21    22    23    1
    22    23    24    1
    23    24    25    1
    24    25    26    1
    25    26    27    1
    26    27    28    1
    27     5     6    1
    28     6     7   am
    29     7     8    2
    30     7     9   am
    31     9    10    1
    32     9    12    1
    33    12    13    1
    34    13    14   ar
    35    14    15   ar
    36    15    16   ar
    37    16    18    1
    38    18    19    1
    39    18    20    1
    40    16    17   ar
    41    39    40   am
    42    40    41    2
    43    40    42    1
    44    42    43    1
    45    43    44    1
    46    44    45   ar
    47    45    46   ar
    48    46    47   ar
    49    47    48   ar
    50    36    31   ar
    51    28    23    1
    52    17    13   ar
    53    48    44   ar
    54     1     4    1
    55     6    11    1
@<TRIPOS>MOLECULE
*****
 52 55 0 0 0
SMALL
GASTEIGER

@<TRIPOS>ATOM
      1 N          61.2426   89.5209    9.2319 N.am    1  UNL1       -0.3042
      2 C          61.3862   89.0418   10.6461 C.2     1  UNL1        0.2404
      3 O          60.4698   87.9783   11.1744 O.2     1  UNL1       -0.2733
      4 H          61.8441   90.2190    8.8852 H       1  UNL1        0.1494
      5 C          62.4462   89.6262   11.5320 C.3     1  UNL1        0.1511
      6 N          63.1467   88.7591   12.5358 N.am    1  UNL1       -0.2824
      7 C          63.0078   89.0461   14.0015 C.2     1  UNL1        0.3046
      8 O          62.1683   90.2003   14.4634 O.2     1  UNL1       -0.2526
      9 N          63.7082   88.1790   15.0052 N.am    1  UNL1       -0.2567
     10 C          63.5693   88.4661   16.4709 C.3     1  UNL1        0.1168
     11 H          63.6977   88.0016   12.2325 H       1  UNL1        0.1514
     12 C          64.5477   87.0249   14.5433 C.3     1  UNL1        0.1413
     13 C          63.9509   85.6516   14.4544 C.ar    1  UNL1        0.0858
     14 C          63.4160   84.8468   15.6017 C.ar    1  UNL1        0.0530
     15 S          62.9187   83.5398   15.0591 S.2     1  UNL1       -0.0705
     16 C          63.1462   83.5369   13.5764 C.ar    1  UNL1        0.0875
     17 N          63.7841   84.8421   13.2027 N.ar    1  UNL1       -0.2453
     18 C          62.7971   82.4241   12.6330 C.3     1  UNL1        0.0465
     19 C          63.2296   82.4937   11.1984 C.3     1  UNL1        0.0069
     20 C          62.0156   81.2418   13.1242 C.3     1  UNL1        0.0069
     21 C          62.8058   91.0777   11.4142 C.3     1  UNL1        0.0463
     22 C          64.1094   91.4791   10.7901 C.3     1  UNL1        0.0745
     23 N          65.0124   92.4467   11.4961 N.3     1  UNL1       -0.2684
     24 C          65.4193   92.1926   12.9173 C.3     1  UNL1        0.1046
     25 C          66.3224   93.1602   13.6233 C.3     1  UNL1        0.1595
     26 O          66.8184   94.3818   12.9081 O.3     1  UNL1       -0.3508
     27 C          66.4114   94.6359   11.4869 C.3     1  UNL1        0.1595
     28 C          65.5084   93.6684   10.7809 C.3     1  UNL1        0.1046
     29 C          60.1826   88.9365    8.3461 C.3     1  UNL1        0.0777
     30 C          59.8358   87.4810    8.4512 C.3     1  UNL1        0.0459
     31 C          60.8194   86.4413    8.0020 C.ar    1  UNL1       -0.0205
     32 C          62.0965   86.2389    8.7623 C.ar    1  UNL1       -0.0042
     33 C          63.0800   85.1992    8.3130 C.ar    1  UNL1       -0.0003
     34 C          62.7864   84.3620    7.1035 C.ar    1  UNL1       -0.0000
     35 C          61.5093   84.5645    6.3433 C.ar    1  UNL1       -0.0003
     36 C          60.5258   85.6041    6.7925 C.ar    1  UNL1       -0.0042
     37 C          59.4692   89.8078    7.3550 C.3     1  UNL1        0.0415
     38 C          59.8044   89.7138    5.8959 C.3     1  UNL1        0.0984
     39 N          60.1471   90.9533    5.1238 N.am    1  UNL1       -0.2460
     40 C          59.0564   91.7805    4.5106 C.2     1  UNL1        0.4052
     41 O          57.6229   91.3682    4.6695 O.2     1  UNL1       -0.2262
     42 O          59.3991   93.0200    3.7385 O.3     1  UNL1       -0.4289
     43 C          59.4090   92.9907    2.2388 C.3     1  UNL1        0.2447
     44 C          60.0553   94.1055    1.4711 C.ar    1  UNL1        0.0714
     45 C          60.2882   95.5006    1.9704 C.ar    1  UNL1        0.1053
     46 N          60.9591   96.2783    0.8772 N.ar    1  UNL1       -0.2350
     47 C          61.1408   95.3637   -0.2978 C.ar    1  UNL1        0.1343
     48 S          60.5822   94.0209    0.0693 S.2     1  UNL1       -0.0652
     49 C          61.5806   91.3656    4.9649 C.3     1  UNL1        0.0967
     50 C          62.7068   92.3241    2.8289 C.3     1  UNL1        0.0018
     51 C          62.2831   91.1478    3.6576 C.3     1  UNL1        0.0200
     52 C          62.5618   89.7538    3.1790 C.3     1  UNL1        0.0018
@<TRIPOS>BOND
     1    50    51    1
     2    51    52    1
     3    51    49    1
     4    49    39    1
     5    39    38    1
     6    38    37    1
     7    29    37    1
     8    29    30    1
     9    30    31    1
    10    31    32   ar
    11    32    33   ar
    12    33    34   ar
    13    34    35   ar
    14    35    36   ar
    15    29     1    1
    16     1     2   am
    17     2     3    2
    18     2     5    1
    19     5    21    1
    20    21    22    1
    21    22    23    1
    22    23    24    1
    23    24    25    1
    24    25    26    1
    25    26    27    1
    26    27    28    1
    27     5     6    1
    28     6     7   am
    29     7     8    2
    30     7     9   am
    31     9    10    1
    32     9    12    1
    33    12    13    1
    34    13    14   ar
    35    14    15   ar
    36    15    16   ar
    37    16    18    1
    38    18    19    1
    39    18    20    1
    40    16    17   ar
    41    39    40   am
    42    40    41    2
    43    40    42    1
    44    42    43    1
    45    43    44    1
    46    44    45   ar
    47    45    46   ar
    48    46    47   ar
    49    47    48   ar
    50    36    31   ar
    51    28    23    1
    52    17    13   ar
    53    48    44   ar
    54     1     4    1
    55     6    11    1
@<TRIPOS>MOLECULE
*****
 52 55 0 0 0
SMALL
GASTEIGER

@<TRIPOS>ATOM
      1 N          63.0705   88.1327   11.3183 N.am    1  UNL1       -0.3042
      2 C          62.2233   89.3670   11.4140 C.2     1  UNL1        0.2404
      3 O          61.4932   89.6787   12.6866 O.2     1  UNL1       -0.2733
      4 H          63.5497   87.9281   10.4830 H       1  UNL1        0.1494
      5 C          62.1062   90.2894   10.2369 C.3     1  UNL1        0.1511
      6 N          61.0101   90.0886    9.2328 N.am    1  UNL1       -0.2824
      7 C          60.7292   88.7175    8.6931 C.2     1  UNL1        0.3046
      8 O          61.5446   87.5472    9.1576 O.2     1  UNL1       -0.2526
      9 N          59.6331   88.5167    7.6891 N.am    1  UNL1       -0.2567
     10 C          59.3523   87.1456    7.1494 C.3     1  UNL1        0.1168
     11 H          60.4750   90.8567    8.9280 H       1  UNL1        0.1514
     12 C          58.8178   89.6870    7.2246 C.3     1  UNL1        0.1413
     13 C          59.2722   90.4977    6.0472 C.ar    1  UNL1        0.0858
     14 C          58.4331   91.4651    5.2662 C.ar    1  UNL1        0.0530
     15 S          59.2879   92.0486    4.1804 S.2     1  UNL1       -0.0705
     16 C          60.6553   91.4417    4.2904 C.ar    1  UNL1        0.0875
     17 N          60.6456   90.4832    5.4441 N.ar    1  UNL1       -0.2453
     18 C          61.8267   91.7408    3.4025 C.3     1  UNL1        0.0465
     19 C          63.0758   90.9169    3.5058 C.3     1  UNL1        0.0069
     20 C          61.7489   92.8639    2.4112 C.3     1  UNL1        0.0069
     21 C          63.0853   91.4125   10.0639 C.3     1  UNL1        0.0463
     22 C          64.2168   91.5773   11.0348 C.3     1  UNL1        0.0745
     23 N          65.3536   92.5010   10.7118 N.3     1  UNL1       -0.2684
     24 C          66.6835   91.9396   10.3042 C.3     1  UNL1        0.1046
     25 C          67.8204   92.8633    9.9812 C.3     1  UNL1        0.1595
     26 O          67.6274   94.3484   10.0658 O.3     1  UNL1       -0.3508
     27 C          66.2975   94.9098   10.4734 C.3     1  UNL1        0.1595
     28 C          65.1606   93.9862   10.7964 C.3     1  UNL1        0.1046
     29 C          63.1875   87.2103   12.4954 C.3     1  UNL1        0.0777
     30 C          62.2196   86.0761   12.6585 C.3     1  UNL1        0.0459
     31 C          62.7050   84.6589   12.5811 C.ar    1  UNL1       -0.0205
     32 C          62.7937   83.8274   13.8263 C.ar    1  UNL1       -0.0042
     33 C          63.2791   82.4102   13.7489 C.ar    1  UNL1       -0.0003
     34 C          63.6758   81.8246   12.4261 C.ar    1  UNL1       -0.0000
     35 C          63.5871   82.6561   11.1809 C.ar    1  UNL1       -0.0003
     36 C          63.1017   84.0732   11.2584 C.ar    1  UNL1       -0.0042
     37 C          64.2725   87.4222   13.5093 C.3     1  UNL1        0.0415
     38 C          63.9527   87.3625   14.9736 C.3     1  UNL1        0.0984
     39 N          63.6498   88.6236   15.7271 N.am    1  UNL1       -0.2460
     40 C          64.0063   89.9550   15.1351 C.2     1  UNL1        0.4052
     41 O          64.6656   90.0252   13.7897 O.2     1  UNL1       -0.2262
     42 O          63.7035   91.2161   15.8888 O.3     1  UNL1       -0.4289
     43 C          64.8179   92.0037   16.5115 C.3     1  UNL1        0.2447
     44 C          65.9910   92.4299   15.6797 C.ar    1  UNL1        0.0714
     45 C          65.9354   92.9237   14.2644 C.ar    1  UNL1        0.1053
     46 N          67.3358   93.2361   13.8271 N.ar    1  UNL1       -0.2350
     47 C          68.2570   92.9353   14.9721 C.ar    1  UNL1        0.1343
     48 S          67.4258   92.4370   16.1171 S.2     1  UNL1       -0.0652
     49 C          62.9905   88.5534   17.0726 C.3     1  UNL1        0.0967
     50 C          62.7070   87.0852   19.1972 C.3     1  UNL1        0.0018
     51 C          62.7133   87.2210   17.7034 C.3     1  UNL1        0.0200
     52 C          62.4424   86.0245   16.8403 C.3     1  UNL1        0.0018
@<TRIPOS>BOND
     1    50    51    1
     2    51    52    1
     3    51    49    1
     4    49    39    1
     5    39    38    1
     6    38    37    1
     7    29    37    1
     8    29    30    1
     9    30    31    1
    10    31    32   ar
    11    32    33   ar
    12    33    34   ar
    13    34    35   ar
    14    35    36   ar
    15    29     1    1
    16     1     2   am
    17     2     3    2
    18     2     5    1
    19     5    21    1
    20    21    22    1
    21    22    23    1
    22    23    24    1
    23    24    25    1
    24    25    26    1
    25    26    27    1
    26    27    28    1
    27     5     6    1
    28     6     7   am
    29     7     8    2
    30     7     9   am
    31     9    10    1
    32     9    12    1
    33    12    13    1
    34    13    14   ar
    35    14    15   ar
    36    15    16   ar
    37    16    18    1
    38    18    19    1
    39    18    20    1
    40    16    17   ar
    41    39    40   am
    42    40    41    2
    43    40    42    1
    44    42    43    1
    45    43    44    1
    46    44    45   ar
    47    45    46   ar
    48    46    47   ar
    49    47    48   ar
    50    36    31   ar
    51    28    23    1
    52    17    13   ar
    53    48    44   ar
    54     1     4    1
    55     6    11    1
@<TRIPOS>MOLECULE
*****
 52 55 0 0 0
SMALL
GASTEIGER

@<TRIPOS>ATOM
      1 N          63.0989   88.5543   11.4779 N.am    1  UNL1       -0.3042
      2 C          61.9457   89.5081   11.3755 C.2     1  UNL1        0.2404
      3 O          60.8991   89.5375   12.4496 O.2     1  UNL1       -0.2733
      4 H          63.7859   88.5350   10.7729 H       1  UNL1        0.1494
      5 C          61.8391   90.4325   10.1989 C.3     1  UNL1        0.1511
      6 N          60.7882   90.1988    9.1544 N.am    1  UNL1       -0.2824
      7 C          60.5576   88.8169    8.6184 C.2     1  UNL1        0.3046
      8 O          61.3780   87.6687    9.1271 O.2     1  UNL1       -0.2526
      9 N          59.5067   88.5833    7.5739 N.am    1  UNL1       -0.2567
     10 C          59.2762   87.2014    7.0380 C.3     1  UNL1        0.1168
     11 H          60.2498   90.9524    8.8206 H       1  UNL1        0.1514
     12 C          58.6864   89.7315    7.0653 C.3     1  UNL1        0.1413
     13 C          59.1929   90.5700    5.9294 C.ar    1  UNL1        0.0858
     14 C          58.4203   91.6320    5.2046 C.ar    1  UNL1        0.0530
     15 S          59.3108   92.2121    4.1461 S.2     1  UNL1       -0.0705
     16 C          60.6338   91.5085    4.2167 C.ar    1  UNL1        0.0875
     17 N          60.5608   90.4937    5.3188 N.ar    1  UNL1       -0.2453
     18 C          61.8212   91.7734    3.3392 C.3     1  UNL1        0.0465
     19 C          61.7643   92.8619    2.3087 C.3     1  UNL1        0.0069
     20 C          63.0654   90.9497    3.4921 C.3     1  UNL1        0.0069
     21 C          62.7834   91.5904   10.0669 C.3     1  UNL1        0.0463
     22 C          64.2516   91.3913   10.3010 C.3     1  UNL1        0.0745
     23 N          65.0091   92.3496   11.1715 N.3     1  UNL1       -0.2684
     24 C          65.4993   93.6496   10.6062 C.3     1  UNL1        0.1046
     25 C          66.2568   94.6080   11.4768 C.3     1  UNL1        0.1595
     26 O          66.5239   94.2663   12.9127 O.3     1  UNL1       -0.3508
     27 C          66.0337   92.9662   13.4780 C.3     1  UNL1        0.1595
     28 C          65.2763   92.0079   12.6075 C.3     1  UNL1        0.1046
     29 C          63.2055   87.6300   12.6544 C.3     1  UNL1        0.0777
     30 C          62.5959   86.2610   12.5903 C.3     1  UNL1        0.0459
     31 C          63.0500   85.2859   11.5448 C.ar    1  UNL1       -0.0205
     32 C          62.7287   85.5314   10.1003 C.ar    1  UNL1       -0.0042
     33 C          63.1829   84.5563    9.0549 C.ar    1  UNL1       -0.0003
     34 C          63.9582   83.3358    9.4539 C.ar    1  UNL1       -0.0000
     35 C          64.2795   83.0904   10.8983 C.ar    1  UNL1       -0.0003
     36 C          63.8254   84.0654   11.9438 C.ar    1  UNL1       -0.0042
     37 C          63.9218   88.0747   13.8951 C.3     1  UNL1        0.0415
     38 C          64.6811   87.0787   14.7205 C.3     1  UNL1        0.0984
     39 N          63.9586   85.9337   15.3663 N.am    1  UNL1       -0.2460
     40 C          64.4330   84.5278   15.1464 C.2     1  UNL1        0.4052
     41 O          65.6298   84.2668   14.2807 O.2     1  UNL1       -0.2262
     42 O          63.7105   83.3828   15.7923 O.3     1  UNL1       -0.4289
     43 C          62.3574   82.9719   15.2920 C.3     1  UNL1        0.2447
     44 C          62.2104   81.7346   14.4570 C.ar    1  UNL1        0.0714
     45 C          60.9299   81.0031   14.1825 C.ar    1  UNL1        0.1053
     46 N          61.2462   79.8278   13.3058 N.ar    1  UNL1       -0.2350
     47 C          62.7222   79.8330   13.0384 C.ar    1  UNL1        0.1343
     48 S          63.3181   81.0114   13.7499 S.2     1  UNL1       -0.0652
     49 C          62.7617   86.1947   16.2321 C.3     1  UNL1        0.0967
     50 C          63.0211   88.6592   17.0121 C.3     1  UNL1        0.0018
     51 C          62.8415   87.2059   17.3370 C.3     1  UNL1        0.0200
     52 C          62.7416   86.7639   18.7669 C.3     1  UNL1        0.0018
@<TRIPOS>BOND
     1    50    51    1
     2    51    52    1
     3    51    49    1
     4    49    39    1
     5    39    38    1
     6    38    37    1
     7    29    37    1
     8    29    30    1
     9    30    31    1
    10    31    32   ar
    11    32    33   ar
    12    33    34   ar
    13    34    35   ar
    14    35    36   ar
    15    29     1    1
    16     1     2   am
    17     2     3    2
    18     2     5    1
    19     5    21    1
    20    21    22    1
    21    22    23    1
    22    23    24    1
    23    24    25    1
    24    25    26    1
    25    26    27    1
    26    27    28    1
    27     5     6    1
    28     6     7   am
    29     7     8    2
    30     7     9   am
    31     9    10    1
    32     9    12    1
    33    12    13    1
    34    13    14   ar
    35    14    15   ar
    36    15    16   ar
    37    16    18    1
    38    18    19    1
    39    18    20    1
    40    16    17   ar
    41    39    40   am
    42    40    41    2
    43    40    42    1
    44    42    43    1
    45    43    44    1
    46    44    45   ar
    47    45    46   ar
    48    46    47   ar
    49    47    48   ar
    50    36    31   ar
    51    28    23    1
    52    17    13   ar
    53    48    44   ar
    54     1     4    1
    55     6    11    1
@<TRIPOS>MOLECULE
*****
 52 55 0 0 0
SMALL
GASTEIGER

@<TRIPOS>ATOM
      1 N          62.6378   87.3863   10.5783 N.am    1  UNL1       -0.3042
      2 C          63.0624   88.0195   11.8702 C.2     1  UNL1        0.2404
      3 O          63.5005   87.1597   13.0185 O.2     1  UNL1       -0.2733
      4 H          62.3503   87.9507    9.8246 H       1  UNL1        0.1494
      5 C          63.0488   89.5126   12.0137 C.3     1  UNL1        0.1511
      6 N          64.2100   90.2152   12.6526 N.am    1  UNL1       -0.2824
      7 C          64.0798   90.7697   14.0403 C.2     1  UNL1        0.3046
      8 O          62.7885   90.6215   14.7891 O.2     1  UNL1       -0.2526
      9 N          65.2409   91.4723   14.6791 N.am    1  UNL1       -0.2567
     10 C          65.1107   92.0267   16.0668 C.3     1  UNL1        0.1168
     11 H          65.0575   90.3125   12.1611 H       1  UNL1        0.1514
     12 C          66.5322   91.6205   13.9303 C.3     1  UNL1        0.1413
     13 C          66.5988   92.4996   12.7168 C.ar    1  UNL1        0.0858
     14 C          65.8292   93.7695   12.5047 C.ar    1  UNL1        0.0530
     15 S          66.2015   94.3179   11.1591 S.2     1  UNL1       -0.0705
     16 C          67.2012   93.3869   10.5396 C.ar    1  UNL1        0.0875
     17 N          67.4468   92.2631   11.5023 N.ar    1  UNL1       -0.2453
     18 C          67.8428   93.5508    9.1936 C.3     1  UNL1        0.0465
     19 C          68.7048   92.4575    8.6355 C.3     1  UNL1        0.0069
     20 C          67.6223   94.8081    8.4058 C.3     1  UNL1        0.0069
     21 C          61.8742   90.3030   11.5184 C.3     1  UNL1        0.0463
     22 C          60.5229   89.6587   11.4234 C.3     1  UNL1        0.0745
     23 N          60.0393   89.1204   10.1095 N.3     1  UNL1       -0.2684
     24 C          60.2530   89.9091    8.8516 C.3     1  UNL1        0.1046
     25 C          59.7694   89.3708    7.5376 C.3     1  UNL1        0.1595
     26 O          59.0721   88.0439    7.4817 O.3     1  UNL1       -0.3508
     27 C          58.8584   87.2553    8.7396 C.3     1  UNL1        0.1595
     28 C          59.3420   87.7935   10.0535 C.3     1  UNL1        0.1046
     29 C          62.6514   85.8933   10.4348 C.3     1  UNL1        0.0777
     30 C          63.3565   85.2579    9.2733 C.3     1  UNL1        0.0459
     31 C          62.6136   84.9968    7.9966 C.ar    1  UNL1       -0.0205
     32 C          63.3536   84.5189    6.7825 C.ar    1  UNL1       -0.0042
     33 C          62.6107   84.2579    5.5059 C.ar    1  UNL1       -0.0003
     34 C          61.1277   84.4746    5.4433 C.ar    1  UNL1       -0.0000
     35 C          60.3877   84.9524    6.6574 C.ar    1  UNL1       -0.0003
     36 C          61.1306   85.2135    7.9340 C.ar    1  UNL1       -0.0042
     37 C          61.9599   85.0357   11.4529 C.3     1  UNL1        0.0415
     38 C          62.5444   83.7088   11.8372 C.3     1  UNL1        0.0984
     39 N          62.7169   83.3563   13.2849 N.am    1  UNL1       -0.2460
     40 C          63.9821   83.7255   14.0012 C.2     1  UNL1        0.4052
     41 O          65.0748   84.4471   13.2697 O.2     1  UNL1       -0.2262
     42 O          64.1545   83.3729   15.4490 O.3     1  UNL1       -0.4289
     43 C          63.2934   84.0278   16.4880 C.3     1  UNL1        0.2447
     44 C          63.2731   85.5225   16.6119 C.ar    1  UNL1        0.0714
     45 C          63.9624   86.4924   15.6985 C.ar    1  UNL1        0.1053
     46 N          63.6754   87.8791   16.1930 N.ar    1  UNL1       -0.2350
     47 C          62.8086   87.7663   17.4121 C.ar    1  UNL1        0.1343
     48 S          62.5601   86.3099   17.6710 S.2     1  UNL1       -0.0652
     49 C          61.6241   82.6347   14.0165 C.3     1  UNL1        0.0967
     50 C          62.5894   80.3185   13.3433 C.3     1  UNL1        0.0018
     51 C          61.4447   81.1573   13.8290 C.3     1  UNL1        0.0200
     52 C          60.1206   80.5187   14.1274 C.3     1  UNL1        0.0018
@<TRIPOS>BOND
     1    50    51    1
     2    51    52    1
     3    51    49    1
     4    49    39    1
     5    39    38    1
     6    38    37    1
     7    29    37    1
     8    29    30    1
     9    30    31    1
    10    31    32   ar
    11    32    33   ar
    12    33    34   ar
    13    34    35   ar
    14    35    36   ar
    15    29     1    1
    16     1     2   am
    17     2     3    2
    18     2     5    1
    19     5    21    1
    20    21    22    1
    21    22    23    1
    22    23    24    1
    23    24    25    1
    24    25    26    1
    25    26    27    1
    26    27    28    1
    27     5     6    1
    28     6     7   am
    29     7     8    2
    30     7     9   am
    31     9    10    1
    32     9    12    1
    33    12    13    1
    34    13    14   ar
    35    14    15   ar
    36    15    16   ar
    37    16    18    1
    38    18    19    1
    39    18    20    1
    40    16    17   ar
    41    39    40   am
    42    40    41    2
    43    40    42    1
    44    42    43    1
    45    43    44    1
    46    44    45   ar
    47    45    46   ar
    48    46    47   ar
    49    47    48   ar
    50    36    31   ar
    51    28    23    1
    52    17    13   ar
    53    48    44   ar
    54     1     4    1
    55     6    11    1
@<TRIPOS>MOLECULE
*****
 52 55 0 0 0
SMALL
GASTEIGER

@<TRIPOS>ATOM
      1 N          63.5424   88.2889   12.4714 N.am    1  UNL1       -0.3042
      2 C          62.2448   87.8743   11.8433 C.2     1  UNL1        0.2404
      3 O          61.0492   88.7763   11.9268 O.2     1  UNL1       -0.2733
      4 H          64.3271   87.6969   12.4166 H       1  UNL1        0.1494
      5 C          62.1428   86.5578   11.1317 C.3     1  UNL1        0.1511
      6 N          61.3041   86.4372    9.8939 N.am    1  UNL1       -0.2824
      7 C          61.8207   85.6759    8.7092 C.2     1  UNL1        0.3046
      8 O          63.1759   85.0351    8.7623 O.2     1  UNL1       -0.2526
      9 N          60.9820   85.5553    7.4714 N.am    1  UNL1       -0.2567
     10 C          61.4986   84.7940    6.2867 C.3     1  UNL1        0.1168
     11 H          60.4147   86.8578    9.8591 H       1  UNL1        0.1514
     12 C          59.6268   86.1961    7.4183 C.3     1  UNL1        0.1413
     13 C          59.5058   87.6828    7.2598 C.ar    1  UNL1        0.0858
     14 C          59.8763   88.7120    8.2863 C.ar    1  UNL1        0.0530
     15 S          59.5926   90.0666    7.7080 S.2     1  UNL1       -0.0705
     16 C          59.0467   89.8746    6.3240 C.ar    1  UNL1        0.0875
     17 N          58.9931   88.4014    6.0471 N.ar    1  UNL1       -0.2453
     18 C          58.6279   90.9645    5.3824 C.3     1  UNL1        0.0465
     19 C          57.1738   91.1803    5.0840 C.3     1  UNL1        0.0069
     20 C          59.6633   91.8387    4.7390 C.3     1  UNL1        0.0069
     21 C          62.8795   85.3618   11.6579 C.3     1  UNL1        0.0463
     22 C          62.4443   84.7174   12.9406 C.3     1  UNL1        0.0745
     23 N          62.6905   83.2551   13.1665 N.3     1  UNL1       -0.2684
     24 C          63.7992   82.5593   12.4340 C.3     1  UNL1        0.1046
     25 C          64.0454   81.0969   12.6600 C.3     1  UNL1        0.1595
     26 O          63.1829   80.3305   13.6184 O.3     1  UNL1       -0.3508
     27 C          62.0742   81.0263   14.3509 C.3     1  UNL1        0.1595
     28 C          61.8280   82.4886   14.1250 C.3     1  UNL1        0.1046
     29 C          63.6443   89.6054   13.1830 C.3     1  UNL1        0.0777
     30 C          64.0129   89.6458   14.6364 C.3     1  UNL1        0.0459
     31 C          63.7580   88.4521   15.5083 C.ar    1  UNL1       -0.0205
     32 C          62.9981   88.6095   16.7919 C.ar    1  UNL1       -0.0042
     33 C          62.7432   87.4159   17.6638 C.ar    1  UNL1       -0.0003
     34 C          63.2481   86.0648   17.2519 C.ar    1  UNL1       -0.0000
     35 C          64.0080   85.9074   15.9683 C.ar    1  UNL1       -0.0003
     36 C          64.2629   87.1010   15.0965 C.ar    1  UNL1       -0.0042
     37 C          63.3777   90.8816   12.4410 C.3     1  UNL1        0.0415
     38 C          64.2228   91.2523   11.2586 C.3     1  UNL1        0.0984
     39 N          65.1576   92.4223   11.3422 N.am    1  UNL1       -0.2460
     40 C          65.5701   92.9586   12.6809 C.2     1  UNL1        0.4052
     41 O          65.0476   92.3249   13.9361 O.2     1  UNL1       -0.2262
     42 O          66.5050   94.1287   12.7645 O.3     1  UNL1       -0.4289
     43 C          67.0112   94.5904   14.0989 C.3     1  UNL1        0.2447
     44 C          67.5961   93.6007   15.0625 C.ar    1  UNL1        0.0714
     45 C          66.8677   92.9321   16.1905 C.ar    1  UNL1        0.1053
     46 N          67.8335   92.0241   16.8924 N.ar    1  UNL1       -0.2350
     47 C          69.1589   92.1316   16.1982 C.ar    1  UNL1        0.1343
     48 S          69.0121   93.1060   15.0672 S.2     1  UNL1       -0.0652
     49 C          65.6802   93.0560   10.0870 C.3     1  UNL1        0.0967
     50 C          67.7679   94.4285    9.3747 C.3     1  UNL1        0.0018
     51 C          67.1587   93.1428    9.8500 C.3     1  UNL1        0.0200
     52 C          68.0281   91.9439   10.0882 C.3     1  UNL1        0.0018
@<TRIPOS>BOND
     1    50    51    1
     2    51    52    1
     3    51    49    1
     4    49    39    1
     5    39    38    1
     6    38    37    1
     7    29    37    1
     8    29    30    1
     9    30    31    1
    10    31    32   ar
    11    32    33   ar
    12    33    34   ar
    13    34    35   ar
    14    35    36   ar
    15    29     1    1
    16     1     2   am
    17     2     3    2
    18     2     5    1
    19     5    21    1
    20    21    22    1
    21    22    23    1
    22    23    24    1
    23    24    25    1
    24    25    26    1
    25    26    27    1
    26    27    28    1
    27     5     6    1
    28     6     7   am
    29     7     8    2
    30     7     9   am
    31     9    10    1
    32     9    12    1
    33    12    13    1
    34    13    14   ar
    35    14    15   ar
    36    15    16   ar
    37    16    18    1
    38    18    19    1
    39    18    20    1
    40    16    17   ar
    41    39    40   am
    42    40    41    2
    43    40    42    1
    44    42    43    1
    45    43    44    1
    46    44    45   ar
    47    45    46   ar
    48    46    47   ar
    49    47    48   ar
    50    36    31   ar
    51    28    23    1
    52    17    13   ar
    53    48    44   ar
    54     1     4    1
    55     6    11    1
@<TRIPOS>MOLECULE
*****
 52 55 0 0 0
SMALL
GASTEIGER

@<TRIPOS>ATOM
      1 N          61.5272   89.2160    9.5200 N.am    1  UNL1       -0.3042
      2 C          61.7304   88.7062   10.9160 C.2     1  UNL1        0.2404
      3 O          60.8146   87.6563   11.4718 O.2     1  UNL1       -0.2733
      4 H          62.1283   89.9051    9.1552 H       1  UNL1        0.1494
      5 C          62.8494   89.2465   11.7562 C.3     1  UNL1        0.1511
      6 N          63.4299   88.4115   12.8590 N.am    1  UNL1       -0.2824
      7 C          63.0837   88.7103   14.2876 C.2     1  UNL1        0.3046
      8 O          62.1571   89.8440   14.6135 O.2     1  UNL1       -0.2526
      9 N          63.6641   87.8754   15.3903 N.am    1  UNL1       -0.2567
     10 C          63.3180   88.1741   16.8189 C.3     1  UNL1        0.1168
     11 H          64.0380   87.6674   12.6451 H       1  UNL1        0.1514
     12 C          64.5907   86.7416   15.0645 C.3     1  UNL1        0.1413
     13 C          64.0325   85.4027   14.6831 C.ar    1  UNL1        0.0858
     14 C          63.1266   84.5530   15.5243 C.ar    1  UNL1        0.0530
     15 S          62.8164   83.3035   14.7547 S.2     1  UNL1       -0.0705
     16 C          63.5305   83.3808   13.4378 C.ar    1  UNL1        0.0875
     17 N          64.2821   84.6782   13.3936 N.ar    1  UNL1       -0.2453
     18 C          63.4986   82.3430   12.3552 C.3     1  UNL1        0.0465
     19 C          62.7783   81.0467   12.5800 C.3     1  UNL1        0.0069
     20 C          64.1871   82.6016   11.0479 C.3     1  UNL1        0.0069
     21 C          63.3880   90.6216   11.4938 C.3     1  UNL1        0.0463
     22 C          63.7573   91.5141   12.6414 C.3     1  UNL1        0.0745
     23 N          65.2009   91.7677   12.9600 N.3     1  UNL1       -0.2684
     24 C          66.0600   92.5278   11.9935 C.3     1  UNL1        0.1046
     25 C          67.5037   92.7813   12.3122 C.3     1  UNL1        0.1595
     26 O          68.0883   92.2747   13.5973 O.3     1  UNL1       -0.3508
     27 C          67.2291   91.5146   14.5638 C.3     1  UNL1        0.1595
     28 C          65.7855   91.2611   14.2452 C.3     1  UNL1        0.1046
     29 C          60.4082   88.6758    8.6798 C.3     1  UNL1        0.0777
     30 C          60.0570   87.2189    8.7452 C.3     1  UNL1        0.0459
     31 C          60.9511   86.2022    8.0995 C.ar    1  UNL1       -0.0205
     32 C          62.2931   85.8970    8.6960 C.ar    1  UNL1       -0.0042
     33 C          63.1871   84.8803    8.0503 C.ar    1  UNL1       -0.0003
     34 C          62.7391   84.1687    6.8081 C.ar    1  UNL1       -0.0000
     35 C          61.3971   84.4739    6.2116 C.ar    1  UNL1       -0.0003
     36 C          60.5031   85.4906    6.8573 C.ar    1  UNL1       -0.0042
     37 C          59.6403   89.5924    7.7741 C.3     1  UNL1        0.0415
     38 C          59.9859   89.6691    6.3165 C.3     1  UNL1        0.0984
     39 N          59.7230   90.9306    5.5487 N.am    1  UNL1       -0.2460
     40 C          60.7402   91.4391    4.5707 C.2     1  UNL1        0.4052
     41 O          62.0203   90.6862    4.3603 O.2     1  UNL1       -0.2262
     42 O          60.4772   92.7007    3.8029 O.3     1  UNL1       -0.4289
     43 C          60.7535   92.7533    2.3295 C.3     1  UNL1        0.2447
     44 C          62.0278   93.3644    1.8268 C.ar    1  UNL1        0.0714
     45 C          62.1418   94.6098    0.9986 C.ar    1  UNL1        0.1053
     46 N          63.5963   94.8524    0.7239 N.ar    1  UNL1       -0.2350
     47 C          64.3813   93.7569    1.3824 C.ar    1  UNL1        0.1343
     48 S          63.4120   92.8372    2.0640 S.2     1  UNL1       -0.0652
     49 C          58.4428   91.6836    5.7591 C.3     1  UNL1        0.0967
     50 C          56.1738   90.4456    5.4969 C.3     1  UNL1        0.0018
     51 C          57.2326   91.3494    4.9383 C.3     1  UNL1        0.0200
     52 C          57.0811   91.9190    3.5589 C.3     1  UNL1        0.0018
@<TRIPOS>BOND
     1    50    51    1
     2    51    52    1
     3    51    49    1
     4    49    39    1
     5    39    38    1
     6    38    37    1
     7    29    37    1
     8    29    30    1
     9    30    31    1
    10    31    32   ar
    11    32    33   ar
    12    33    34   ar
    13    34    35   ar
    14    35    36   ar
    15    29     1    1
    16     1     2   am
    17     2     3    2
    18     2     5    1
    19     5    21    1
    20    21    22    1
    21    22    23    1
    22    23    24    1
    23    24    25    1
    24    25    26    1
    25    26    27    1
    26    27    28    1
    27     5     6    1
    28     6     7   am
    29     7     8    2
    30     7     9   am
    31     9    10    1
    32     9    12    1
    33    12    13    1
    34    13    14   ar
    35    14    15   ar
    36    15    16   ar
    37    16    18    1
    38    18    19    1
    39    18    20    1
    40    16    17   ar
    41    39    40   am
    42    40    41    2
    43    40    42    1
    44    42    43    1
    45    43    44    1
    46    44    45   ar
    47    45    46   ar
    48    46    47   ar
    49    47    48   ar
    50    36    31   ar
    51    28    23    1
    52    17    13   ar
    53    48    44   ar
    54     1     4    1
    55     6    11    1
@<TRIPOS>MOLECULE
*****
 52 55 0 0 0
SMALL
GASTEIGER

@<TRIPOS>ATOM
      1 N          63.8462   88.3887   12.5950 N.am    1  UNL1       -0.3042
      2 C          63.2729   89.7032   13.0351 C.2     1  UNL1        0.2404
      3 O          62.4025   89.7711   14.2548 O.2     1  UNL1       -0.2733
      4 H          64.4174   88.3441   11.7944 H       1  UNL1        0.1494
      5 C          63.5699   90.9496   12.2553 C.3     1  UNL1        0.1511
      6 N          64.4894   91.9892   12.8246 N.am    1  UNL1       -0.2824
      7 C          65.4870   91.6115   13.8792 C.2     1  UNL1        0.3046
      8 O          65.5650   90.1942   14.3646 O.2     1  UNL1       -0.2526
      9 N          66.4064   92.6509   14.4485 N.am    1  UNL1       -0.2567
     10 C          67.4039   92.2732   15.5032 C.3     1  UNL1        0.1168
     11 H          64.4382   92.9193   12.5060 H       1  UNL1        0.1514
     12 C          66.3284   94.0681   13.9632 C.3     1  UNL1        0.1413
     13 C          66.5344   94.3754   12.5095 C.ar    1  UNL1        0.0858
     14 C          66.0745   95.6121   11.7960 C.ar    1  UNL1        0.0530
     15 S          66.4922   95.5011   10.3597 S.2     1  UNL1       -0.0705
     16 C          67.2103   94.1956   10.1855 C.ar    1  UNL1        0.0875
     17 N          67.2363   93.5000   11.5141 N.ar    1  UNL1       -0.2453
     18 C          67.7990   93.6769    8.9070 C.3     1  UNL1        0.0465
     19 C          68.5280   92.3661    8.8945 C.3     1  UNL1        0.0069
     20 C          67.6587   94.4691    7.6410 C.3     1  UNL1        0.0069
     21 C          62.9476   91.1566   10.9063 C.3     1  UNL1        0.0463
     22 C          61.4546   91.2005   10.7679 C.3     1  UNL1        0.0745
     23 N          60.7113   89.9940   10.2761 N.3     1  UNL1       -0.2684
     24 C          60.5549   89.7583    8.8030 C.3     1  UNL1        0.1046
     25 C          59.8115   88.5518    8.3113 C.3     1  UNL1        0.1595
     26 O          59.2245   87.5810    9.2926 O.3     1  UNL1       -0.3508
     27 C          59.3809   87.8167   10.7657 C.3     1  UNL1        0.1595
     28 C          60.1243   89.0232   11.2575 C.3     1  UNL1        0.1046
     29 C          63.5491   87.1422   13.3748 C.3     1  UNL1        0.0777
     30 C          62.6627   86.0839   12.7881 C.3     1  UNL1        0.0459
     31 C          62.8203   85.6858   11.3504 C.ar    1  UNL1       -0.0205
     32 C          62.2801   86.5682   10.2643 C.ar    1  UNL1       -0.0042
     33 C          62.4377   86.1701    8.8268 C.ar    1  UNL1       -0.0003
     34 C          63.1355   84.8896    8.4753 C.ar    1  UNL1       -0.0000
     35 C          63.6757   84.0073    9.5614 C.ar    1  UNL1       -0.0003
     36 C          63.5181   84.4054   10.9990 C.ar    1  UNL1       -0.0042
     37 C          64.1385   86.9540   14.7413 C.3     1  UNL1        0.0415
     38 C          64.8082   85.6600   15.0975 C.3     1  UNL1        0.0984
     39 N          63.9815   84.4679   15.4789 N.am    1  UNL1       -0.2460
     40 C          63.9924   83.2407   14.6165 C.2     1  UNL1        0.4052
     41 O          64.8300   83.2056   13.3726 O.2     1  UNL1       -0.2262
     42 O          63.1657   82.0486   14.9979 O.3     1  UNL1       -0.4289
     43 C          62.0526   81.5904   14.1029 C.3     1  UNL1        0.2447
     44 C          62.3614   80.7983   12.8672 C.ar    1  UNL1        0.0714
     45 C          62.4083   79.3024   12.7676 C.ar    1  UNL1        0.1053
     46 N          62.7536   78.9425   11.3529 N.ar    1  UNL1       -0.2350
     47 C          62.9200   80.2162   10.5782 C.ar    1  UNL1        0.1343
     48 S          62.6777   81.3631   11.5141 S.2     1  UNL1       -0.0652
     49 C          63.1439   84.5030   16.7228 C.3     1  UNL1        0.0967
     50 C          61.0198   85.9278   16.2672 C.3     1  UNL1        0.0018
     51 C          62.2961   85.7035   17.0226 C.3     1  UNL1        0.0200
     52 C          62.7247   86.6798   18.0776 C.3     1  UNL1        0.0018
@<TRIPOS>BOND
     1    50    51    1
     2    51    52    1
     3    51    49    1
     4    49    39    1
     5    39    38    1
     6    38    37    1
     7    29    37    1
     8    29    30    1
     9    30    31    1
    10    31    32   ar
    11    32    33   ar
    12    33    34   ar
    13    34    35   ar
    14    35    36   ar
    15    29     1    1
    16     1     2   am
    17     2     3    2
    18     2     5    1
    19     5    21    1
    20    21    22    1
    21    22    23    1
    22    23    24    1
    23    24    25    1
    24    25    26    1
    25    26    27    1
    26    27    28    1
    27     5     6    1
    28     6     7   am
    29     7     8    2
    30     7     9   am
    31     9    10    1
    32     9    12    1
    33    12    13    1
    34    13    14   ar
    35    14    15   ar
    36    15    16   ar
    37    16    18    1
    38    18    19    1
    39    18    20    1
    40    16    17   ar
    41    39    40   am
    42    40    41    2
    43    40    42    1
    44    42    43    1
    45    43    44    1
    46    44    45   ar
    47    45    46   ar
    48    46    47   ar
    49    47    48   ar
    50    36    31   ar
    51    28    23    1
    52    17    13   ar
    53    48    44   ar
    54     1     4    1
    55     6    11    1
@<TRIPOS>MOLECULE
*****
 52 55 0 0 0
SMALL
GASTEIGER

@<TRIPOS>ATOM
      1 N          61.9540   89.2319    9.6820 N.am    1  UNL1       -0.3042
      2 C          61.7588   89.8248   11.0460 C.2     1  UNL1        0.2404
      3 O          60.3809   89.9242   11.6303 O.2     1  UNL1       -0.2733
      4 H          62.8584   89.1666    9.2984 H       1  UNL1        0.1494
      5 C          62.9415   90.3183   11.8255 C.3     1  UNL1        0.1511
      6 N          62.9392   90.2374   13.3234 N.am    1  UNL1       -0.2824
      7 C          63.9109   91.0565   14.1202 C.2     1  UNL1        0.3046
      8 O          64.8848   91.9565   13.4191 O.2     1  UNL1       -0.2526
      9 N          63.9086   90.9756   15.6180 N.am    1  UNL1       -0.2567
     10 C          64.8803   91.7947   16.4148 C.3     1  UNL1        0.1168
     11 H          62.2999   89.6467   13.7835 H       1  UNL1        0.1514
     12 C          62.9347   90.0755   16.3190 C.3     1  UNL1        0.1413
     13 C          63.1716   88.5948   16.3519 C.ar    1  UNL1        0.0858
     14 C          62.7784   87.6633   17.4599 C.ar    1  UNL1        0.0530
     15 S          63.2071   86.2783   17.0753 S.2     1  UNL1       -0.0705
     16 C          63.8652   86.3538   15.7295 C.ar    1  UNL1        0.0875
     17 N          63.8433   87.7854   15.2824 N.ar    1  UNL1       -0.2453
     18 C          64.4438   85.2001   14.9650 C.3     1  UNL1        0.0465
     19 C          65.8720   85.2437   14.5085 C.3     1  UNL1        0.0069
     20 C          63.5942   84.0029   14.6570 C.3     1  UNL1        0.0069
     21 C          64.1264   90.8928   11.1073 C.3     1  UNL1        0.0463
     22 C          64.0993   92.3161   10.6345 C.3     1  UNL1        0.0745
     23 N          65.3842   93.0588   10.4171 N.3     1  UNL1       -0.2684
     24 C          66.6291   92.3102   10.0432 C.3     1  UNL1        0.1046
     25 C          67.9141   93.0530    9.8257 C.3     1  UNL1        0.1595
     26 O          67.9541   94.5442    9.9822 O.3     1  UNL1       -0.3508
     27 C          66.7091   95.2928   10.3562 C.3     1  UNL1        0.1595
     28 C          65.4242   94.5501   10.5736 C.3     1  UNL1        0.1046
     29 C          60.7713   88.7383    8.9024 C.3     1  UNL1        0.0777
     30 C          60.3698   87.2953    8.9820 C.3     1  UNL1        0.0459
     31 C          61.3665   86.2624    9.4179 C.ar    1  UNL1       -0.0205
     32 C          62.3033   85.6545    8.4166 C.ar    1  UNL1       -0.0042
     33 C          63.2998   84.6217    8.8525 C.ar    1  UNL1       -0.0003
     34 C          63.3596   84.1968   10.2898 C.ar    1  UNL1       -0.0000
     35 C          62.4228   84.8047   11.2912 C.ar    1  UNL1       -0.0003
     36 C          61.4262   85.8375   10.8552 C.ar    1  UNL1       -0.0042
     37 C          59.9901   89.6880    8.0433 C.3     1  UNL1        0.0415
     38 C          60.1066   89.6171    6.5495 C.3     1  UNL1        0.0984
     39 N          59.8031   90.8262    5.7154 N.am    1  UNL1       -0.2460
     40 C          60.7845   91.2883    4.6794 C.2     1  UNL1        0.4052
     41 O          62.0694   90.5412    4.4774 O.2     1  UNL1       -0.2262
     42 O          60.4810   92.4975    3.8452 O.3     1  UNL1       -0.4289
     43 C          60.6874   92.4552    2.3601 C.3     1  UNL1        0.2447
     44 C          61.9721   92.9528    1.7670 C.ar    1  UNL1        0.0714
     45 C          63.3398   92.7867    2.3603 C.ar    1  UNL1        0.1053
     46 N          64.3277   93.4351    1.4365 N.ar    1  UNL1       -0.2350
     47 C          63.5706   94.0020    0.2722 C.ar    1  UNL1        0.1343
     48 S          62.1148   93.7039    0.4765 S.2     1  UNL1       -0.0652
     49 C          58.5182   91.5734    5.9173 C.3     1  UNL1        0.0967
     50 C          56.2443   90.3868    5.5040 C.3     1  UNL1        0.0018
     51 C          57.3409   91.2942    5.0308 C.3     1  UNL1        0.0200
     52 C          57.2604   91.9222    3.6710 C.3     1  UNL1        0.0018
@<TRIPOS>BOND
     1    50    51    1
     2    51    52    1
     3    51    49    1
     4    49    39    1
     5    39    38    1
     6    38    37    1
     7    29    37    1
     8    29    30    1
     9    30    31    1
    10    31    32   ar
    11    32    33   ar
    12    33    34   ar
    13    34    35   ar
    14    35    36   ar
    15    29     1    1
    16     1     2   am
    17     2     3    2
    18     2     5    1
    19     5    21    1
    20    21    22    1
    21    22    23    1
    22    23    24    1
    23    24    25    1
    24    25    26    1
    25    26    27    1
    26    27    28    1
    27     5     6    1
    28     6     7   am
    29     7     8    2
    30     7     9   am
    31     9    10    1
    32     9    12    1
    33    12    13    1
    34    13    14   ar
    35    14    15   ar
    36    15    16   ar
    37    16    18    1
    38    18    19    1
    39    18    20    1
    40    16    17   ar
    41    39    40   am
    42    40    41    2
    43    40    42    1
    44    42    43    1
    45    43    44    1
    46    44    45   ar
    47    45    46   ar
    48    46    47   ar
    49    47    48   ar
    50    36    31   ar
    51    28    23    1
    52    17    13   ar
    53    48    44   ar
    54     1     4    1
    55     6    11    1
