@<TRIPOS>MOLECULE
*****
 33 35 0 0 0
SMALL
GASTEIGER

@<TRIPOS>ATOM
      1 N          63.8182   86.7980   13.9553 N.pl3   1  UNL1       -0.2916
      2 C          63.5004   87.9338   13.0285 C.3     1  UNL1        0.1030
      3 C          64.2025   88.8842   13.9525 C.3     1  UNL1        0.1174
      4 C          64.5203   87.7484   14.8793 C.3     1  UNL1        0.1030
      5 C          63.0030   82.3724   13.9613 C.ar    1  UNL1        0.0900
      6 C          62.6637   83.1992   15.1659 C.ar    1  UNL1        0.0207
      7 C          62.9354   84.6744   15.1640 C.ar    1  UNL1        0.1001
      8 C          63.5465   85.3228   13.9573 C.ar    1  UNL1        0.1409
      9 N          63.8858   84.4961   12.7526 N.ar    1  UNL1       -0.2341
     10 C          63.6141   83.0209   12.7546 C.ar    1  UNL1        0.0670
     11 C          63.9534   82.1941   11.5498 C.3     1  UNL1        0.0524
     12 C          62.7313   80.8973   13.9632 C.2     1  UNL1        0.3424
     13 O          63.7886   79.9405   14.4286 O.2     1  UNL1       -0.2449
     14 O          61.4022   80.3788   13.4999 O.3     1  UNL1       -0.4454
     15 C          59.0256   79.7785   14.3610 C.3     1  UNL1        0.0513
     16 C          60.1508   80.7623   14.2325 C.3     1  UNL1        0.2089
     17 C          62.5961   85.5011   16.3687 C.1     1  UNL1        0.1032
     18 N          62.2568   86.3278   17.5734 N.1     1  UNL1       -0.1907
     19 C          64.4742   90.3594   13.9505 C.2     1  UNL1        0.2435
     20 O          63.6635   91.2725   14.8216 O.2     1  UNL1       -0.2734
     21 N          65.5567   90.9214   13.0774 N.am    1  UNL1       -0.1884
     22 H          66.0888   90.3221   12.5056 H       1  UNL1        0.1762
     23 S          65.8284   92.3966   13.0754 S.O2    1  UNL1        0.0602
     24 O          67.0345   92.1756   13.9394 O.2     1  UNL1       -0.1541
     25 O          64.6223   92.6176   12.2114 O.2     1  UNL1       -0.1541
     26 C          66.1001   93.8718   13.0734 C.3     1  UNL1        0.1988
     27 C          66.3944   94.5784   11.7835 C.ar    1  UNL1        0.0033
     28 C          66.1022   96.0434   11.6472 C.ar    1  UNL1       -0.0016
     29 C          66.3964   96.7501   10.3573 C.ar    1  UNL1        0.0111
     30 C          66.9830   95.9918    9.2035 C.ar    1  UNL1        0.0577
     31 CL         67.2773   96.6985    7.9136 Cl      1  UNL1       -0.0822
     32 C          67.2752   94.5269    9.3398 C.ar    1  UNL1        0.0111
     33 C          66.9809   93.8202   10.6298 C.ar    1  UNL1       -0.0016
@<TRIPOS>BOND
     1    15    16    1
     2    16    14    1
     3    14    12    1
     4    12    13    2
     5    12     5    1
     6     5     6   ar
     7     6     7   ar
     8     7    17    1
     9    17    18    3
    10     7     8   ar
    11     8     1    1
    12     1     2    1
    13     2     3    1
    14     3    19    1
    15    19    20    2
    16    19    21   am
    17    21    23    1
    18    23    24    2
    19    23    25    2
    20    23    26    1
    21    26    27    1
    22    27    28   ar
    23    28    29   ar
    24    29    30   ar
    25    30    31    1
    26    30    32   ar
    27    32    33   ar
    28     3     4    1
    29     8     9   ar
    30     9    10   ar
    31    10    11    1
    32    10     5   ar
    33     4     1    1
    34    33    27   ar
    35    21    22    1
@<TRIPOS>MOLECULE
*****
 33 35 0 0 0
SMALL
GASTEIGER

@<TRIPOS>ATOM
      1 N          64.6799   90.1750   13.4495 N.pl3   1  UNL1       -0.2916
      2 C          63.7120   89.1412   12.9549 C.3     1  UNL1        0.1030
      3 C          64.0856   88.2446   14.0978 C.3     1  UNL1        0.1174
      4 C          65.0535   89.2783   14.5925 C.3     1  UNL1        0.1030
      5 C          65.9404   94.2701   12.0742 C.ar    1  UNL1        0.0900
      6 C          65.0482   93.4300   11.2092 C.ar    1  UNL1        0.0207
      7 C          64.6280   92.0650   11.6676 C.ar    1  UNL1        0.1001
      8 C          65.1000   91.5400   12.9911 C.ar    1  UNL1        0.1409
      9 N          65.9922   92.3801   13.8561 N.ar    1  UNL1       -0.2341
     10 C          66.4123   93.7451   13.3977 C.ar    1  UNL1        0.0670
     11 C          67.3045   94.5852   14.2628 C.3     1  UNL1        0.0524
     12 C          66.3605   95.6351   11.6158 C.2     1  UNL1        0.3424
     13 O          65.7975   96.8560   12.2810 O.2     1  UNL1       -0.2449
     14 O          67.3437   95.7793   10.4922 O.3     1  UNL1       -0.4454
     15 C          68.2371   93.7691    9.1097 C.3     1  UNL1        0.0513
     16 C          67.2492   94.8829    9.2932 C.3     1  UNL1        0.2089
     17 C          63.7358   91.2249   10.8025 C.1     1  UNL1        0.1032
     18 N          62.8437   90.3849    9.9374 N.1     1  UNL1       -0.1907
     19 C          63.6655   86.8796   14.5563 C.2     1  UNL1        0.2435
     20 O          63.2111   86.6702   15.9703 O.2     1  UNL1       -0.2734
     21 N          63.6997   85.7239   13.6006 N.am    1  UNL1       -0.1884
     22 H          63.9979   85.8613   12.6725 H       1  UNL1        0.1762
     23 S          63.2795   84.3589   14.0591 S.O2    1  UNL1        0.0602
     24 O          64.7003   84.0437   14.4225 O.2     1  UNL1       -0.1541
     25 O          61.8588   84.6741   13.6956 O.2     1  UNL1       -0.1541
     26 C          62.8593   82.9939   14.5175 C.3     1  UNL1        0.1988
     27 C          62.8002   81.8591   13.5384 C.ar    1  UNL1        0.0033
     28 C          62.3847   80.4930   13.9978 C.ar    1  UNL1       -0.0016
     29 C          62.3255   79.3582   13.0187 C.ar    1  UNL1        0.0111
     30 C          62.6818   79.5895   11.5800 C.ar    1  UNL1        0.0577
     31 CL         62.6226   78.4548   10.6009 Cl      1  UNL1       -0.0822
     32 C          63.0972   80.9557   11.1206 C.ar    1  UNL1        0.0111
     33 C          63.1564   82.0905   12.0998 C.ar    1  UNL1       -0.0016
@<TRIPOS>BOND
     1    15    16    1
     2    16    14    1
     3    14    12    1
     4    12    13    2
     5    12     5    1
     6     5     6   ar
     7     6     7   ar
     8     7    17    1
     9    17    18    3
    10     7     8   ar
    11     8     1    1
    12     1     2    1
    13     2     3    1
    14     3    19    1
    15    19    20    2
    16    19    21   am
    17    21    23    1
    18    23    24    2
    19    23    25    2
    20    23    26    1
    21    26    27    1
    22    27    28   ar
    23    28    29   ar
    24    29    30   ar
    25    30    31    1
    26    30    32   ar
    27    32    33   ar
    28     3     4    1
    29     8     9   ar
    30     9    10   ar
    31    10    11    1
    32    10     5   ar
    33     4     1    1
    34    33    27   ar
    35    21    22    1
@<TRIPOS>MOLECULE
*****
 33 35 0 0 0
SMALL
GASTEIGER

@<TRIPOS>ATOM
      1 N          63.5112   86.8612   13.2442 N.pl3   1  UNL1       -0.2916
      2 C          63.1579   88.0573   12.4107 C.3     1  UNL1        0.1030
      3 C          63.9518   88.9343   13.3329 C.3     1  UNL1        0.1174
      4 C          64.3051   87.7383   14.1664 C.3     1  UNL1        0.1030
      5 C          62.5764   82.4634   13.0560 C.ar    1  UNL1        0.0900
      6 C          62.3837   83.3237   11.8425 C.ar    1  UNL1        0.0207
      7 C          62.6953   84.7896   11.9052 C.ar    1  UNL1        0.1001
      8 C          63.1996   85.3952   13.1815 C.ar    1  UNL1        0.1409
      9 N          63.3923   84.5349   14.3950 N.ar    1  UNL1       -0.2341
     10 C          63.0807   83.0690   14.3323 C.ar    1  UNL1        0.0670
     11 C          63.2735   82.2087   15.5459 C.3     1  UNL1        0.0524
     12 C          62.2648   80.9974   12.9933 C.2     1  UNL1        0.3424
     13 O          62.8428   80.1541   11.8957 O.2     1  UNL1       -0.2449
     14 O          61.3753   80.3748   14.0281 O.3     1  UNL1       -0.4454
     15 C          58.9291   79.6607   14.5346 C.3     1  UNL1        0.0513
     16 C          59.9076   80.6844   14.0398 C.3     1  UNL1        0.2089
     17 C          62.5026   85.6499   10.6916 C.1     1  UNL1        0.1032
     18 N          62.3098   86.5102    9.4781 N.1     1  UNL1       -0.1907
     19 C          64.2634   90.4003   13.3956 C.2     1  UNL1        0.2435
     20 O          63.4600   91.3003   14.2868 O.2     1  UNL1       -0.2734
     21 N          65.3785   90.9661   12.5672 N.am    1  UNL1       -0.1884
     22 H          65.9059   90.3754   11.9823 H       1  UNL1        0.1762
     23 S          65.6901   92.4321   12.6299 S.O2    1  UNL1        0.0602
     24 O          66.7391   92.1646   13.6682 O.2     1  UNL1       -0.1541
     25 O          64.6410   92.6995   11.5917 O.2     1  UNL1       -0.1541
     26 C          66.0017   93.8980   12.6926 C.3     1  UNL1        0.1988
     27 C          66.3909   94.6360   11.4462 C.ar    1  UNL1        0.0033
     28 C          66.0992   96.1020   11.3205 C.ar    1  UNL1       -0.0016
     29 C          66.4885   96.8400   10.0740 C.ar    1  UNL1        0.0111
     30 C          67.1695   96.1121    8.9531 C.ar    1  UNL1        0.0577
     31 CL         67.5588   96.8501    7.7067 Cl      1  UNL1       -0.0822
     32 C          67.4612   94.6461    9.0788 C.ar    1  UNL1        0.0111
     33 C          67.0719   93.9081   10.3254 C.ar    1  UNL1       -0.0016
@<TRIPOS>BOND
     1    15    16    1
     2    16    14    1
     3    14    12    1
     4    12    13    2
     5    12     5    1
     6     5     6   ar
     7     6     7   ar
     8     7    17    1
     9    17    18    3
    10     7     8   ar
    11     8     1    1
    12     1     2    1
    13     2     3    1
    14     3    19    1
    15    19    20    2
    16    19    21   am
    17    21    23    1
    18    23    24    2
    19    23    25    2
    20    23    26    1
    21    26    27    1
    22    27    28   ar
    23    28    29   ar
    24    29    30   ar
    25    30    31    1
    26    30    32   ar
    27    32    33   ar
    28     3     4    1
    29     8     9   ar
    30     9    10   ar
    31    10    11    1
    32    10     5   ar
    33     4     1    1
    34    33    27   ar
    35    21    22    1
