@<TRIPOS>MOLECULE
*****
 26 28 0 0 0
SMALL
GASTEIGER

@<TRIPOS>ATOM
      1 C          63.6726   86.7562   15.6303 C.ar    1  UNL1        0.1534
      2 C          64.0717   87.5373   14.4135 C.ar    1  UNL1        0.0351
      3 C          64.0456   89.0367   14.4430 C.ar    1  UNL1        0.0722
      4 CL         64.4447   89.8179   13.2262 Cl      1  UNL1       -0.0809
      5 C          63.6204   89.7551   15.6893 C.ar    1  UNL1        0.0577
      6 C          63.2214   88.9740   16.9061 C.ar    1  UNL1        0.0462
      7 C          63.2475   87.4746   16.8766 C.ar    1  UNL1        0.1602
      8 F          62.8484   86.6934   18.0934 F       1  UNL1       -0.2027
      9 O          65.1439   85.2897   15.2007 O.2     1  UNL1       -0.1498
     10 S          63.6987   85.2567   15.6009 S.O2    1  UNL1        0.0772
     11 O          62.2535   85.2236   16.0011 O.2     1  UNL1       -0.1498
     12 N          63.7248   83.7572   15.5714 N.pl3   1  UNL1       -0.1936
     13 H          63.9505   83.2527   16.3862 H       1  UNL1        0.1758
     14 C          63.4072   83.0263   14.3006 C.ar    1  UNL1        0.1786
     15 N          63.5190   81.5464   14.0830 N.ar    1  UNL1       -0.2214
     16 C          63.1029   81.2526   12.6722 C.ar    1  UNL1        0.1079
     17 C          62.7338   82.5509   12.0178 C.ar    1  UNL1        0.0588
     18 S          62.9218   83.6472   13.0242 S.2     1  UNL1       -0.0497
     19 N          63.5944   91.2546   15.7187 N.pl3   1  UNL1       -0.3319
     20 H          62.8684   91.7433   15.2677 H       1  UNL1        0.1468
     21 C          64.6744   92.0096   16.4353 C.3     1  UNL1        0.0896
     22 C          65.8997   92.4526   15.6920 C.3     1  UNL1        0.0516
     23 C          67.2459   92.7255   16.2946 C.3     1  UNL1        0.0363
     24 C          68.1721   93.1420   15.1906 C.3     1  UNL1        0.1423
     25 O          67.3982   93.1263   13.9057 O.3     1  UNL1       -0.3537
     26 C          65.9938   92.7003   14.2156 C.3     1  UNL1        0.1439
@<TRIPOS>BOND
     1     9    10    2
     2    10    11    2
     3    10    12    1
     4    12    14    1
     5    14    15   ar
     6    15    16   ar
     7    16    17   ar
     8    17    18   ar
     9    10     1    1
    10     1     2   ar
    11     2     3   ar
    12     3     4    1
    13     3     5   ar
    14     5    19    1
    15    19    21    1
    16    21    22    1
    17    22    23    1
    18    23    24    1
    19    24    25    1
    20    25    26    1
    21     5     6   ar
    22     6     7   ar
    23     7     8    1
    24    18    14   ar
    25     7     1   ar
    26    26    22    1
    27    12    13    1
    28    19    20    1
@<TRIPOS>MOLECULE
*****
 26 28 0 0 0
SMALL
GASTEIGER

@<TRIPOS>ATOM
      1 C          64.6811   91.6025   11.8998 C.ar    1  UNL1        0.1534
      2 C          63.7377   91.4490   10.7438 C.ar    1  UNL1        0.0351
      3 C          62.7582   90.3132   10.7209 C.ar    1  UNL1        0.0722
      4 CL         61.8148   90.1596    9.5649 Cl      1  UNL1       -0.0809
      5 C          62.7221   89.3310   11.8540 C.ar    1  UNL1        0.0577
      6 C          63.6655   89.4845   13.0100 C.ar    1  UNL1        0.0462
      7 C          64.6450   90.6203   13.0329 C.ar    1  UNL1        0.1602
      8 F          65.5885   90.7739   14.1890 F       1  UNL1       -0.2027
      9 O          65.1822   93.1233   13.2912 O.2     1  UNL1       -0.1498
     10 S          65.6607   92.7383   11.9228 S.O2    1  UNL1        0.0772
     11 O          66.1392   92.3534   10.5543 O.2     1  UNL1       -0.1498
     12 N          66.6402   93.8741   11.9457 N.pl3   1  UNL1       -0.1936
     13 H          67.2614   93.9732   12.7031 H       1  UNL1        0.1758
     14 C          66.6733   94.8590   10.8148 C.ar    1  UNL1        0.1786
     15 N          67.7555   94.9811    9.7834 N.ar    1  UNL1       -0.2214
     16 C          67.3811   96.0922    8.8479 C.ar    1  UNL1        0.1079
     17 C          66.0673   96.6569    9.3011 C.ar    1  UNL1        0.0588
     18 S          65.6299   95.8946   10.5168 S.2     1  UNL1       -0.0497
     19 N          61.7426   88.1952   11.8311 N.pl3   1  UNL1       -0.3319
     20 H          60.8377   88.3180   12.1990 H       1  UNL1        0.1468
     21 C          62.1416   86.8723   11.2475 C.3     1  UNL1        0.0896
     22 C          61.6861   86.4921    9.8698 C.3     1  UNL1        0.0516
     23 C          60.3370   86.7749    9.2781 C.3     1  UNL1        0.0363
     24 C          60.3167   86.2200    7.8845 C.3     1  UNL1        0.1423
     25 O          61.6532   85.5944    7.6152 O.3     1  UNL1       -0.3537
     26 C          62.4995   85.7626    8.8422 C.3     1  UNL1        0.1439
@<TRIPOS>BOND
     1     9    10    2
     2    10    11    2
     3    10    12    1
     4    12    14    1
     5    14    15   ar
     6    15    16   ar
     7    16    17   ar
     8    17    18   ar
     9    10     1    1
    10     1     2   ar
    11     2     3   ar
    12     3     4    1
    13     3     5   ar
    14     5    19    1
    15    19    21    1
    16    21    22    1
    17    22    23    1
    18    23    24    1
    19    24    25    1
    20    25    26    1
    21     5     6   ar
    22     6     7   ar
    23     7     8    1
    24    18    14   ar
    25     7     1   ar
    26    26    22    1
    27    12    13    1
    28    19    20    1
@<TRIPOS>MOLECULE
*****
 26 28 0 0 0
SMALL
GASTEIGER

@<TRIPOS>ATOM
      1 C          63.5726   90.5897   11.8173 C.ar    1  UNL1        0.1534
      2 C          62.5850   90.5769   10.6885 C.ar    1  UNL1        0.0351
      3 C          61.7435   89.3600   10.4420 C.ar    1  UNL1        0.0722
      4 CL         60.7558   89.3472    9.3131 Cl      1  UNL1       -0.0809
      5 C          61.8896   88.1557   11.3243 C.ar    1  UNL1        0.0577
      6 C          62.8773   88.1685   12.4531 C.ar    1  UNL1        0.0462
      7 C          63.7188   89.3854   12.6997 C.ar    1  UNL1        0.1602
      8 F          64.7065   89.3982   13.8286 F       1  UNL1       -0.2027
      9 O          64.8891   91.7664   10.6417 O.2     1  UNL1       -0.1498
     10 S          64.4142   91.8067   12.0639 S.O2    1  UNL1        0.0772
     11 O          63.9393   91.8470   13.4862 O.2     1  UNL1       -0.1498
     12 N          65.2557   93.0236   12.3104 N.pl3   1  UNL1       -0.1936
     13 H          65.1119   93.8380   11.7763 H       1  UNL1        0.1758
     14 C          66.3165   92.9998   13.3708 C.ar    1  UNL1        0.1786
     15 N          66.4405   93.9610   14.5157 N.ar    1  UNL1       -0.2214
     16 C          67.6400   93.5658   15.3249 C.ar    1  UNL1        0.1079
     17 C          68.2575   92.3603   14.6802 C.ar    1  UNL1        0.0588
     18 S          67.4394   92.0105   13.4724 S.2     1  UNL1       -0.0497
     19 N          61.0481   86.9387   11.0777 N.pl3   1  UNL1       -0.3319
     20 H          60.1538   86.8681   11.4835 H       1  UNL1        0.1468
     21 C          61.5690   85.8293   10.2130 C.3     1  UNL1        0.0896
     22 C          62.5962   84.8780   10.7513 C.3     1  UNL1        0.0516
     23 C          62.8402   84.5706   12.1991 C.3     1  UNL1        0.0363
     24 C          63.9546   83.5696   12.2790 C.3     1  UNL1        0.1423
     25 O          64.3993   83.2584   10.8805 O.3     1  UNL1       -0.3537
     26 C          63.5597   84.0670    9.9364 C.3     1  UNL1        0.1439
@<TRIPOS>BOND
     1     9    10    2
     2    10    11    2
     3    10    12    1
     4    12    14    1
     5    14    15   ar
     6    15    16   ar
     7    16    17   ar
     8    17    18   ar
     9    10     1    1
    10     1     2   ar
    11     2     3   ar
    12     3     4    1
    13     3     5   ar
    14     5    19    1
    15    19    21    1
    16    21    22    1
    17    22    23    1
    18    23    24    1
    19    24    25    1
    20    25    26    1
    21     5     6   ar
    22     6     7   ar
    23     7     8    1
    24    18    14   ar
    25     7     1   ar
    26    26    22    1
    27    12    13    1
    28    19    20    1
@<TRIPOS>MOLECULE
*****
 26 28 0 0 0
SMALL
GASTEIGER

@<TRIPOS>ATOM
      1 C          63.8637   86.5798   13.9285 C.ar    1  UNL1        0.1534
      2 C          64.3018   87.7206   14.7983 C.ar    1  UNL1        0.0351
      3 C          64.1012   89.1342   14.3385 C.ar    1  UNL1        0.0722
      4 CL         64.5393   90.2751   15.2082 Cl      1  UNL1       -0.0809
      5 C          63.4625   89.4070   13.0089 C.ar    1  UNL1        0.0577
      6 C          63.0244   88.2662   12.1392 C.ar    1  UNL1        0.0462
      7 C          63.2250   86.8526   12.5989 C.ar    1  UNL1        0.1602
      8 F          62.7869   85.7116   11.7292 F       1  UNL1       -0.2027
      9 O          65.5442   85.3125   14.1925 O.2     1  UNL1       -0.1498
     10 S          64.0642   85.1661   14.3883 S.O2    1  UNL1        0.0772
     11 O          62.5843   85.0197   14.5840 O.2     1  UNL1       -0.1498
     12 N          64.2648   83.7525   14.8480 N.pl3   1  UNL1       -0.1936
     13 H          64.8053   83.5676   15.6498 H       1  UNL1        0.1758
     14 C          63.6420   82.6204   14.0860 C.ar    1  UNL1        0.1786
     15 N          62.6665   81.6208   14.6329 N.ar    1  UNL1       -0.2214
     16 C          62.3069   80.6718   13.5282 C.ar    1  UNL1        0.1079
     17 C          63.0602   81.0850   12.2986 C.ar    1  UNL1        0.0588
     18 S          63.8853   82.2894   12.6434 S.2     1  UNL1       -0.0497
     19 N          63.2619   90.8207   12.5492 N.pl3   1  UNL1       -0.3319
     20 H          62.6296   91.4076   13.0235 H       1  UNL1        0.1468
     21 C          64.0248   91.3402   11.3668 C.3     1  UNL1        0.0896
     22 C          65.0524   92.4173   11.5515 C.3     1  UNL1        0.0516
     23 C          65.5061   93.3917   10.5053 C.3     1  UNL1        0.0363
     24 C          66.5408   94.2856   11.1220 C.3     1  UNL1        0.1423
     25 O          66.7265   93.8636   12.5495 O.3     1  UNL1       -0.3537
     26 C          65.8067   92.7089   12.8149 C.3     1  UNL1        0.1439
@<TRIPOS>BOND
     1     9    10    2
     2    10    11    2
     3    10    12    1
     4    12    14    1
     5    14    15   ar
     6    15    16   ar
     7    16    17   ar
     8    17    18   ar
     9    10     1    1
    10     1     2   ar
    11     2     3   ar
    12     3     4    1
    13     3     5   ar
    14     5    19    1
    15    19    21    1
    16    21    22    1
    17    22    23    1
    18    23    24    1
    19    24    25    1
    20    25    26    1
    21     5     6   ar
    22     6     7   ar
    23     7     8    1
    24    18    14   ar
    25     7     1   ar
    26    26    22    1
    27    12    13    1
    28    19    20    1
@<TRIPOS>MOLECULE
*****
 26 28 0 0 0
SMALL
GASTEIGER

@<TRIPOS>ATOM
      1 C          63.6310   85.9982   13.7294 C.ar    1  UNL1        0.1534
      2 C          62.9920   86.2897   12.4040 C.ar    1  UNL1        0.0351
      3 C          62.9299   87.6994   11.8952 C.ar    1  UNL1        0.0722
      4 CL         62.2910   87.9910   10.5698 Cl      1  UNL1       -0.0809
      5 C          63.5068   88.8176   12.7119 C.ar    1  UNL1        0.0577
      6 C          64.1458   88.5261   14.0373 C.ar    1  UNL1        0.0462
      7 C          64.2079   87.1164   14.5460 C.ar    1  UNL1        0.1602
      8 F          64.8469   86.8248   15.8715 F       1  UNL1       -0.2027
      9 O          62.2217   84.6278   14.5267 O.2     1  UNL1       -0.1498
     10 S          63.6931   84.5885   14.2382 S.O2    1  UNL1        0.0772
     11 O          65.1646   84.5491   13.9497 O.2     1  UNL1       -0.1498
     12 N          63.7552   83.1788   14.7470 N.pl3   1  UNL1       -0.1936
     13 H          64.1070   82.9958   15.6481 H       1  UNL1        0.1758
     14 C          63.2813   82.0480   13.8828 C.ar    1  UNL1        0.1786
     15 N          62.5749   80.8124   14.3565 N.ar    1  UNL1       -0.2214
     16 C          62.2876   79.9550   13.1597 C.ar    1  UNL1        0.1079
     17 C          62.8165   80.6607   11.9463 C.ar    1  UNL1        0.0588
     18 S          63.4306   81.9543   12.3932 S.2     1  UNL1       -0.0497
     19 N          63.4447   90.2274   12.2031 N.pl3   1  UNL1       -0.3319
     20 H          62.9337   90.4342   11.3874 H       1  UNL1        0.1468
     21 C          64.1611   91.3219   12.9370 C.3     1  UNL1        0.0896
     22 C          65.0836   92.2433   12.1953 C.3     1  UNL1        0.0516
     23 C          65.1366   92.4279   10.7076 C.3     1  UNL1        0.0363
     24 C          66.2007   93.4406   10.4039 C.3     1  UNL1        0.1423
     25 O          66.8052   93.8819   11.7039 O.3     1  UNL1       -0.3537
     26 C          66.1148   93.1419   12.8110 C.3     1  UNL1        0.1439
@<TRIPOS>BOND
     1     9    10    2
     2    10    11    2
     3    10    12    1
     4    12    14    1
     5    14    15   ar
     6    15    16   ar
     7    16    17   ar
     8    17    18   ar
     9    10     1    1
    10     1     2   ar
    11     2     3   ar
    12     3     4    1
    13     3     5   ar
    14     5    19    1
    15    19    21    1
    16    21    22    1
    17    22    23    1
    18    23    24    1
    19    24    25    1
    20    25    26    1
    21     5     6   ar
    22     6     7   ar
    23     7     8    1
    24    18    14   ar
    25     7     1   ar
    26    26    22    1
    27    12    13    1
    28    19    20    1
@<TRIPOS>MOLECULE
*****
 26 28 0 0 0
SMALL
GASTEIGER

@<TRIPOS>ATOM
      1 C          63.7235   90.8233   11.7549 C.ar    1  UNL1        0.1534
      2 C          62.7180   90.7318   10.6456 C.ar    1  UNL1        0.0351
      3 C          61.8752   89.5000   10.4971 C.ar    1  UNL1        0.0722
      4 CL         60.8697   89.4084    9.3877 Cl      1  UNL1       -0.0809
      5 C          62.0379   88.3596   11.4578 C.ar    1  UNL1        0.0577
      6 C          63.0434   88.4511   12.5671 C.ar    1  UNL1        0.0462
      7 C          63.8862   89.6830   12.7157 C.ar    1  UNL1        0.1602
      8 F          64.8917   89.7745   13.8250 F       1  UNL1       -0.2027
      9 O          64.7656   92.0981   10.4174 O.2     1  UNL1       -0.1498
     10 S          64.5664   92.0553   11.9035 S.O2    1  UNL1        0.0772
     11 O          64.3672   92.0124   13.3895 O.2     1  UNL1       -0.1498
     12 N          65.4092   93.2871   12.0520 N.pl3   1  UNL1       -0.1936
     13 H          65.3110   93.8577   12.8482 H       1  UNL1        0.1758
     14 C          66.4018   93.6496   10.9874 C.ar    1  UNL1        0.1786
     15 N          67.5285   92.7867   10.5017 N.ar    1  UNL1       -0.2214
     16 C          68.2650   93.5425    9.4357 C.ar    1  UNL1        0.1079
     17 C          67.5934   94.8726    9.2624 C.ar    1  UNL1        0.0588
     18 S          66.4418   94.9388   10.2215 S.2     1  UNL1       -0.0497
     19 N          61.1950   87.1276   11.3092 N.pl3   1  UNL1       -0.3319
     20 H          60.3395   87.0555   11.7910 H       1  UNL1        0.1468
     21 C          61.6557   86.0057   10.4267 C.3     1  UNL1        0.0896
     22 C          62.6124   84.9790   10.9566 C.3     1  UNL1        0.0516
     23 C          63.4291   84.0272   10.1337 C.3     1  UNL1        0.0363
     24 C          64.2418   83.1838   11.0709 C.3     1  UNL1        0.1423
     25 O          63.9274   83.6145   12.4730 O.3     1  UNL1       -0.3537
     26 C          62.9204   84.7239   12.4023 C.3     1  UNL1        0.1439
@<TRIPOS>BOND
     1     9    10    2
     2    10    11    2
     3    10    12    1
     4    12    14    1
     5    14    15   ar
     6    15    16   ar
     7    16    17   ar
     8    17    18   ar
     9    10     1    1
    10     1     2   ar
    11     2     3   ar
    12     3     4    1
    13     3     5   ar
    14     5    19    1
    15    19    21    1
    16    21    22    1
    17    22    23    1
    18    23    24    1
    19    24    25    1
    20    25    26    1
    21     5     6   ar
    22     6     7   ar
    23     7     8    1
    24    18    14   ar
    25     7     1   ar
    26    26    22    1
    27    12    13    1
    28    19    20    1
@<TRIPOS>MOLECULE
*****
 26 28 0 0 0
SMALL
GASTEIGER

@<TRIPOS>ATOM
      1 C          60.3032   87.3291    8.7157 C.ar    1  UNL1        0.1534
      2 C          61.2939   86.4086    8.0667 C.ar    1  UNL1        0.0351
      3 C          62.2381   85.6065    8.9123 C.ar    1  UNL1        0.0722
      4 CL         63.2289   84.6860    8.2634 Cl      1  UNL1       -0.0809
      5 C          62.1916   85.7249   10.4069 C.ar    1  UNL1        0.0577
      6 C          61.2009   86.6453   11.0559 C.ar    1  UNL1        0.0462
      7 C          60.2567   87.4474   10.2103 C.ar    1  UNL1        0.1602
      8 F          59.2659   88.3679   10.8593 F       1  UNL1       -0.2027
      9 O          60.0690   89.3900    8.2714 O.2     1  UNL1       -0.1498
     10 S          59.3590   88.1312    7.8701 S.O2    1  UNL1        0.0772
     11 O          58.6489   86.8724    7.4687 O.2     1  UNL1       -0.1498
     12 N          58.4148   88.9334    7.0245 N.pl3   1  UNL1       -0.1936
     13 H          57.4452   88.7725    7.0814 H       1  UNL1        0.1758
     14 C          58.9479   89.9807    6.0923 C.ar    1  UNL1        0.1786
     15 N          60.3717   90.1165    5.6403 N.ar    1  UNL1       -0.2214
     16 C          60.4545   91.2958    4.7171 C.ar    1  UNL1        0.1079
     17 C          59.0818   91.8889    4.5984 C.ar    1  UNL1        0.0588
     18 S          58.1506   91.0760    5.4484 S.2     1  UNL1       -0.0497
     19 N          63.1359   84.9227   11.2526 N.pl3   1  UNL1       -0.3319
     20 H          63.9874   84.6054   10.8739 H       1  UNL1        0.1468
     21 C          62.7827   84.6042   12.6751 C.3     1  UNL1        0.0896
     22 C          62.6068   83.1772   13.1028 C.3     1  UNL1        0.0516
     23 C          62.6725   81.9745   12.2088 C.3     1  UNL1        0.0363
     24 C          62.4406   80.7563   13.0529 C.3     1  UNL1        0.1423
     25 O          62.2316   81.2063   14.4685 O.3     1  UNL1       -0.3537
     26 C          62.3343   82.7024   14.4993 C.3     1  UNL1        0.1439
@<TRIPOS>BOND
     1     9    10    2
     2    10    11    2
     3    10    12    1
     4    12    14    1
     5    14    15   ar
     6    15    16   ar
     7    16    17   ar
     8    17    18   ar
     9    10     1    1
    10     1     2   ar
    11     2     3   ar
    12     3     4    1
    13     3     5   ar
    14     5    19    1
    15    19    21    1
    16    21    22    1
    17    22    23    1
    18    23    24    1
    19    24    25    1
    20    25    26    1
    21     5     6   ar
    22     6     7   ar
    23     7     8    1
    24    18    14   ar
    25     7     1   ar
    26    26    22    1
    27    12    13    1
    28    19    20    1
@<TRIPOS>MOLECULE
*****
 26 28 0 0 0
SMALL
GASTEIGER

@<TRIPOS>ATOM
      1 C          62.4121   89.6581   11.7211 C.ar    1  UNL1        0.1534
      2 C          62.9356   89.8433   13.1145 C.ar    1  UNL1        0.0351
      3 C          63.9624   90.9000   13.3956 C.ar    1  UNL1        0.0722
      4 CL         64.4860   91.0852   14.7891 Cl      1  UNL1       -0.0809
      5 C          64.4658   91.7714   12.2833 C.ar    1  UNL1        0.0577
      6 C          63.9423   91.5862   10.8899 C.ar    1  UNL1        0.0462
      7 C          62.9155   90.5295   10.6088 C.ar    1  UNL1        0.1602
      8 F          62.3919   90.3443    9.2153 F       1  UNL1       -0.2027
      9 O          60.3171   89.6533   11.3885 O.2     1  UNL1       -0.1498
     10 S          61.3852   88.6015   11.4400 S.O2    1  UNL1        0.0772
     11 O          62.4533   87.5496   11.4914 O.2     1  UNL1       -0.1498
     12 N          60.3583   87.5449   11.1588 N.pl3   1  UNL1       -0.1936
     13 H          59.8269   87.1664   11.8961 H       1  UNL1        0.1758
     14 C          60.1411   87.0649    9.7543 C.ar    1  UNL1        0.1786
     15 N          60.8877   85.9544    9.0766 N.ar    1  UNL1       -0.2214
     16 C          60.3471   85.8144    7.6845 C.ar    1  UNL1        0.1079
     17 C          59.2664   86.8385    7.5017 C.ar    1  UNL1        0.0588
     18 S          59.1390   87.6114    8.7810 S.2     1  UNL1       -0.0497
     19 N          65.4927   92.8281   12.5644 N.pl3   1  UNL1       -0.3319
     20 H          65.2356   93.7784   12.5584 H       1  UNL1        0.1468
     21 C          66.9114   92.4368   12.8547 C.3     1  UNL1        0.0896
     22 C          67.4870   92.6625   14.2214 C.3     1  UNL1        0.0516
     23 C          68.1595   91.6296   15.0763 C.3     1  UNL1        0.0363
     24 C          68.5793   92.2894   16.3564 C.3     1  UNL1        0.1423
     25 O          68.1662   93.7300   16.2926 O.3     1  UNL1       -0.3537
     26 C          67.4911   93.9606   14.9731 C.3     1  UNL1        0.1439
@<TRIPOS>BOND
     1     9    10    2
     2    10    11    2
     3    10    12    1
     4    12    14    1
     5    14    15   ar
     6    15    16   ar
     7    16    17   ar
     8    17    18   ar
     9    10     1    1
    10     1     2   ar
    11     2     3   ar
    12     3     4    1
    13     3     5   ar
    14     5    19    1
    15    19    21    1
    16    21    22    1
    17    22    23    1
    18    23    24    1
    19    24    25    1
    20    25    26    1
    21     5     6   ar
    22     6     7   ar
    23     7     8    1
    24    18    14   ar
    25     7     1   ar
    26    26    22    1
    27    12    13    1
    28    19    20    1
@<TRIPOS>MOLECULE
*****
 26 28 0 0 0
SMALL
GASTEIGER

@<TRIPOS>ATOM
      1 C          63.2978   85.7972   13.2312 C.ar    1  UNL1        0.1534
      2 C          62.5906   85.7685   11.9088 C.ar    1  UNL1        0.0351
      3 C          62.4056   87.0367   11.1296 C.ar    1  UNL1        0.0722
      4 CL         61.6983   87.0081    9.8071 Cl      1  UNL1       -0.0809
      5 C          62.9278   88.3337   11.6729 C.ar    1  UNL1        0.0577
      6 C          63.6350   88.3624   12.9953 C.ar    1  UNL1        0.0462
      7 C          63.8201   87.0941   13.7745 C.ar    1  UNL1        0.1602
      8 F          64.5273   87.1228   15.0970 F       1  UNL1       -0.2027
      9 O          62.4081   84.9583   14.9646 O.2     1  UNL1       -0.1498
     10 S          63.4829   84.5288   14.0105 S.O2    1  UNL1        0.0772
     11 O          64.5577   84.0994   13.0564 O.2     1  UNL1       -0.1498
     12 N          63.6679   83.2606   14.7898 N.pl3   1  UNL1       -0.1936
     13 H          64.2003   83.2649   15.6179 H       1  UNL1        0.1758
     14 C          63.0418   81.9857   14.3073 C.ar    1  UNL1        0.1786
     15 N          63.7751   80.7413   13.9027 N.ar    1  UNL1       -0.2214
     16 C          62.7590   79.7180   13.4901 C.ar    1  UNL1        0.1079
     17 C          61.3976   80.3300   13.6397 C.ar    1  UNL1        0.0588
     18 S          61.5724   81.7316   14.1448 S.2     1  UNL1       -0.0497
     19 N          62.7427   89.6020   10.8936 N.pl3   1  UNL1       -0.3319
     20 H          62.5494   89.5634    9.9290 H       1  UNL1        0.1468
     21 C          62.8521   90.9292   11.5839 C.3     1  UNL1        0.0896
     22 C          64.1974   91.5618   11.7843 C.3     1  UNL1        0.0516
     23 C          64.9657   91.6106   13.0716 C.3     1  UNL1        0.0363
     24 C          66.2538   92.3356   12.8154 C.3     1  UNL1        0.1423
     25 O          66.2814   92.7347   11.3697 O.3     1  UNL1       -0.3537
     26 C          65.0105   92.2565   10.7325 C.3     1  UNL1        0.1439
@<TRIPOS>BOND
     1     9    10    2
     2    10    11    2
     3    10    12    1
     4    12    14    1
     5    14    15   ar
     6    15    16   ar
     7    16    17   ar
     8    17    18   ar
     9    10     1    1
    10     1     2   ar
    11     2     3   ar
    12     3     4    1
    13     3     5   ar
    14     5    19    1
    15    19    21    1
    16    21    22    1
    17    22    23    1
    18    23    24    1
    19    24    25    1
    20    25    26    1
    21     5     6   ar
    22     6     7   ar
    23     7     8    1
    24    18    14   ar
    25     7     1   ar
    26    26    22    1
    27    12    13    1
    28    19    20    1
