@<TRIPOS>MOLECULE
*****
 31 35 0 0 0
SMALL
GASTEIGER

@<TRIPOS>ATOM
      1 N          65.6625   91.9358   13.8033 N.ar    1  UNL1       -0.3256
      2 C          64.7859   90.8720   13.2118 C.ar    1  UNL1        0.0367
      3 C          64.3399   91.3389   11.8579 C.ar    1  UNL1        0.0109
      4 C          64.9408   92.6912   11.6126 C.ar    1  UNL1        0.0167
      5 C          64.8493   93.6343   10.4498 C.ar    1  UNL1        0.0308
      6 C          65.5752   94.9463   10.4894 C.ar    1  UNL1        0.1402
      7 F          65.4837   95.8894    9.3266 F       1  UNL1       -0.2042
      8 C          66.3927   95.3152   11.6918 C.ar    1  UNL1        0.0311
      9 C          66.4842   94.3721   12.8546 C.ar    1  UNL1        0.0195
     10 C          65.7583   93.0601   12.8150 C.ar    1  UNL1        0.0598
     11 C          63.4441   90.4723   11.0232 C.3     1  UNL1        0.1213
     12 N          62.9944   89.1388   11.5425 N.am    1  UNL1       -0.2747
     13 C          62.0986   88.2722   10.7078 C.2     1  UNL1        0.2303
     14 O          61.6526   88.7390    9.3539 O.2     1  UNL1       -0.2745
     15 C          63.4404   88.6719   12.8964 C.3     1  UNL1        0.0999
     16 C          64.3362   89.5385   13.7311 C.3     1  UNL1        0.0650
     17 C          66.3268   91.8843   15.1472 C.3     1  UNL1        0.1474
     18 O          68.4540   92.2069   16.6036 O.co2   1  UNL1       -0.5472
     19 C          67.8133   92.0522   15.2561 C.2     1  UNL1        0.0732
     20 O          68.6593   92.0655   14.0175 O.co2   1  UNL1       -0.5472
     21 C          61.6489   86.9387   11.2272 C.3     1  UNL1        0.1116
     22 C          62.3903   85.6938   10.8387 C.ar    1  UNL1       -0.0131
     23 C          62.7014   85.4255    9.3961 C.ar    1  UNL1       -0.0038
     24 C          63.4427   84.1807    9.0077 C.ar    1  UNL1       -0.0003
     25 C          63.8729   83.2042   10.0619 C.ar    1  UNL1       -0.0000
     26 C          63.5617   83.4725   11.5045 C.ar    1  UNL1       -0.0003
     27 C          63.9918   82.4959   12.5588 C.ar    1  UNL1       -0.0000
     28 C          63.6806   82.7643   14.0015 C.ar    1  UNL1       -0.0000
     29 C          62.9393   84.0092   14.3898 C.ar    1  UNL1       -0.0000
     30 C          62.5092   84.9856   13.3356 C.ar    1  UNL1       -0.0003
     31 C          62.8204   84.7173   11.8929 C.ar    1  UNL1       -0.0035
@<TRIPOS>UNITY_ATOM_ATTR
18 1
charge -1
@<TRIPOS>BOND
     1    18    19   ar
     2    19    20   ar
     3    19    17    1
     4    17     1    1
     5     1     2   ar
     6     2     3   ar
     7     3     4   ar
     8     4     5   ar
     9     5     6   ar
    10     6     7    1
    11     6     8   ar
    12     8     9   ar
    13     9    10   ar
    14     3    11    1
    15    11    12    1
    16    12    13   am
    17    13    14    2
    18    13    21    1
    19    21    22    1
    20    22    23   ar
    21    23    24   ar
    22    24    25   ar
    23    25    26   ar
    24    26    27   ar
    25    27    28   ar
    26    28    29   ar
    27    29    30   ar
    28    30    31   ar
    29    12    15    1
    30    15    16    1
    31    10     1   ar
    32    31    22   ar
    33    16     2    1
    34    10     4   ar
    35    31    26   ar
@<TRIPOS>MOLECULE
*****
 31 35 0 0 0
SMALL
GASTEIGER

@<TRIPOS>ATOM
      1 N          65.3251   93.0592   11.9399 N.ar    1  UNL1       -0.3256
      2 C          64.5849   91.7567   11.8654 C.ar    1  UNL1        0.0367
      3 C          64.9208   90.9618   13.0923 C.ar    1  UNL1        0.0109
      4 C          65.8686   91.7731   13.9251 C.ar    1  UNL1        0.0167
      5 C          66.5364   91.4989   15.2400 C.ar    1  UNL1        0.0308
      6 C          67.4540   92.5210   15.8425 C.ar    1  UNL1        0.1402
      7 F          68.1219   92.2469   17.1575 F       1  UNL1       -0.2042
      8 C          67.7039   93.8173   15.1303 C.ar    1  UNL1        0.0311
      9 C          67.0361   94.0914   13.8155 C.ar    1  UNL1        0.0195
     10 C          66.1185   93.0693   13.2129 C.ar    1  UNL1        0.0598
     11 C          64.3202   89.6020   13.2927 C.3     1  UNL1        0.1213
     12 N          63.3837   89.0370   12.2661 N.am    1  UNL1       -0.2747
     13 C          62.7831   87.6771   12.4666 C.2     1  UNL1        0.2303
     14 O          63.1190   86.8823   13.6935 O.2     1  UNL1       -0.2745
     15 C          63.0478   89.8319   11.0392 C.3     1  UNL1        0.0999
     16 C          63.6484   91.1917   10.8388 C.3     1  UNL1        0.0650
     17 C          65.2799   94.1585   10.9204 C.3     1  UNL1        0.1474
     18 O          67.7277   94.0326   10.0590 O.co2   1  UNL1       -0.5472
     19 C          66.5459   94.8443   10.5002 C.2     1  UNL1        0.0732
     20 O          66.6304   96.3418   10.5212 O.co2   1  UNL1       -0.5472
     21 C          61.8466   87.1122   11.4400 C.3     1  UNL1        0.1116
     22 C          62.3457   86.1128   10.4389 C.ar    1  UNL1       -0.0131
     23 C          62.3425   86.4496    8.9772 C.ar    1  UNL1       -0.0038
     24 C          62.8416   85.4502    7.9762 C.ar    1  UNL1       -0.0003
     25 C          63.3439   84.1140    8.4368 C.ar    1  UNL1       -0.0000
     26 C          63.3472   83.7772    9.8985 C.ar    1  UNL1       -0.0003
     27 C          63.8495   82.4409   10.3592 C.ar    1  UNL1       -0.0000
     28 C          63.8527   82.1042   11.8210 C.ar    1  UNL1       -0.0000
     29 C          63.3536   83.1037   12.8219 C.ar    1  UNL1       -0.0000
     30 C          62.8513   84.4398   12.3613 C.ar    1  UNL1       -0.0003
     31 C          62.8481   84.7766   10.8995 C.ar    1  UNL1       -0.0035
@<TRIPOS>UNITY_ATOM_ATTR
18 1
charge -1
@<TRIPOS>BOND
     1    18    19   ar
     2    19    20   ar
     3    19    17    1
     4    17     1    1
     5     1     2   ar
     6     2     3   ar
     7     3     4   ar
     8     4     5   ar
     9     5     6   ar
    10     6     7    1
    11     6     8   ar
    12     8     9   ar
    13     9    10   ar
    14     3    11    1
    15    11    12    1
    16    12    13   am
    17    13    14    2
    18    13    21    1
    19    21    22    1
    20    22    23   ar
    21    23    24   ar
    22    24    25   ar
    23    25    26   ar
    24    26    27   ar
    25    27    28   ar
    26    28    29   ar
    27    29    30   ar
    28    30    31   ar
    29    12    15    1
    30    15    16    1
    31    10     1   ar
    32    31    22   ar
    33    16     2    1
    34    10     4   ar
    35    31    26   ar
@<TRIPOS>MOLECULE
*****
 31 35 0 0 0
SMALL
GASTEIGER

@<TRIPOS>ATOM
      1 N          62.5538   85.4649   10.1579 N.ar    1  UNL1       -0.3256
      2 C          62.7793   86.5777   11.1381 C.ar    1  UNL1        0.0367
      3 C          63.2387   85.9707   12.4306 C.ar    1  UNL1        0.0109
      4 C          63.2972   84.4829   12.2491 C.ar    1  UNL1        0.0167
      5 C          63.6813   83.3724   13.1815 C.ar    1  UNL1        0.0308
      6 C          63.6420   81.9493   12.7091 C.ar    1  UNL1        0.1402
      7 F          64.0260   80.8387   13.6415 F       1  UNL1       -0.2042
      8 C          63.2186   81.6367   11.3045 C.ar    1  UNL1        0.0311
      9 C          62.8346   82.7471   10.3722 C.ar    1  UNL1        0.0195
     10 C          62.8739   84.1703   10.8445 C.ar    1  UNL1        0.0598
     11 C          63.5445   86.8513   13.6057 C.3     1  UNL1        0.1213
     12 N          63.3908   88.3388   13.4884 N.am    1  UNL1       -0.2747
     13 C          63.6967   89.2194   14.6637 C.2     1  UNL1        0.2303
     14 O          64.1561   88.6125   15.9562 O.2     1  UNL1       -0.2745
     15 C          62.9314   88.9457   12.1960 C.3     1  UNL1        0.0999
     16 C          62.6256   88.0652   11.0208 C.3     1  UNL1        0.0650
     17 C          62.0896   85.6196    8.7399 C.3     1  UNL1        0.1474
     18 O          59.9709   86.9765    9.3878 O.co2   1  UNL1       -0.5472
     19 C          60.6783   86.0393    8.4542 C.2     1  UNL1        0.0732
     20 O          59.9740   85.5219    7.2350 O.co2   1  UNL1       -0.5472
     21 C          63.5429   90.7069   14.5463 C.3     1  UNL1        0.1116
     22 C          64.7579   91.5802   14.4390 C.ar    1  UNL1       -0.0131
     23 C          65.5402   91.9314   15.6697 C.ar    1  UNL1       -0.0038
     24 C          66.7550   92.8047   15.5624 C.ar    1  UNL1       -0.0003
     25 C          67.1875   93.3267   14.2243 C.ar    1  UNL1       -0.0000
     26 C          66.4052   92.9756   12.9936 C.ar    1  UNL1       -0.0003
     27 C          66.8378   93.4976   11.6555 C.ar    1  UNL1       -0.0000
     28 C          66.0554   93.1464   10.4248 C.ar    1  UNL1       -0.0000
     29 C          64.8405   92.2731   10.5322 C.ar    1  UNL1       -0.0000
     30 C          64.4080   91.7511   11.8702 C.ar    1  UNL1       -0.0003
     31 C          65.1904   92.1023   13.1009 C.ar    1  UNL1       -0.0035
@<TRIPOS>UNITY_ATOM_ATTR
18 1
charge -1
@<TRIPOS>BOND
     1    18    19   ar
     2    19    20   ar
     3    19    17    1
     4    17     1    1
     5     1     2   ar
     6     2     3   ar
     7     3     4   ar
     8     4     5   ar
     9     5     6   ar
    10     6     7    1
    11     6     8   ar
    12     8     9   ar
    13     9    10   ar
    14     3    11    1
    15    11    12    1
    16    12    13   am
    17    13    14    2
    18    13    21    1
    19    21    22    1
    20    22    23   ar
    21    23    24   ar
    22    24    25   ar
    23    25    26   ar
    24    26    27   ar
    25    27    28   ar
    26    28    29   ar
    27    29    30   ar
    28    30    31   ar
    29    12    15    1
    30    15    16    1
    31    10     1   ar
    32    31    22   ar
    33    16     2    1
    34    10     4   ar
    35    31    26   ar
@<TRIPOS>MOLECULE
*****
 31 35 0 0 0
SMALL
GASTEIGER

@<TRIPOS>ATOM
      1 N          64.8562   92.0080   12.2362 N.ar    1  UNL1       -0.3256
      2 C          64.3825   90.6135   12.5211 C.ar    1  UNL1        0.0367
      3 C          65.0078   90.1657   13.8089 C.ar    1  UNL1        0.0109
      4 C          65.8679   91.2833   14.3199 C.ar    1  UNL1        0.0167
      5 C          66.7244   91.4113   15.5447 C.ar    1  UNL1        0.0308
      6 C          67.4871   92.6779   15.7974 C.ar    1  UNL1        0.1402
      7 F          68.3436   92.8060   17.0222 F       1  UNL1       -0.2042
      8 C          67.3934   93.8165   14.8254 C.ar    1  UNL1        0.0311
      9 C          66.5370   93.6885   13.6006 C.ar    1  UNL1        0.0195
     10 C          65.7742   92.4219   13.3479 C.ar    1  UNL1        0.0598
     11 C          64.7132   88.7981   14.3499 C.3     1  UNL1        0.1213
     12 N          63.7932   87.8783   13.6031 N.am    1  UNL1       -0.2747
     13 C          63.4986   86.5105   14.1442 C.2     1  UNL1        0.2303
     14 O          64.1239   86.0627   15.4320 O.2     1  UNL1       -0.2745
     15 C          63.1679   88.3261   12.3153 C.3     1  UNL1        0.0999
     16 C          63.4625   89.6937   11.7743 C.3     1  UNL1        0.0650
     17 C          64.4782   92.8420   11.0482 C.3     1  UNL1        0.1474
     18 O          66.7121   93.2121    9.7744 O.co2   1  UNL1       -0.5472
     19 C          65.4839   93.7685   10.4316 C.2     1  UNL1        0.0732
     20 O          65.2615   95.2513   10.4722 O.co2   1  UNL1       -0.5472
     21 C          62.5786   85.5908   13.3973 C.3     1  UNL1        0.1116
     22 C          63.1149   84.7269   12.2945 C.ar    1  UNL1       -0.0131
     23 C          63.9944   83.5560   12.6192 C.ar    1  UNL1       -0.0038
     24 C          64.5306   82.6922   11.5164 C.ar    1  UNL1       -0.0003
     25 C          64.1874   82.9993   10.0888 C.ar    1  UNL1       -0.0000
     26 C          63.3079   84.1702    9.7641 C.ar    1  UNL1       -0.0003
     27 C          62.9646   84.4773    8.3365 C.ar    1  UNL1       -0.0000
     28 C          62.0851   85.6483    8.0118 C.ar    1  UNL1       -0.0000
     29 C          61.5489   86.5121    9.1147 C.ar    1  UNL1       -0.0000
     30 C          61.8921   86.2050   10.5422 C.ar    1  UNL1       -0.0003
     31 C          62.7717   85.0340   10.8669 C.ar    1  UNL1       -0.0035
@<TRIPOS>UNITY_ATOM_ATTR
18 1
charge -1
@<TRIPOS>BOND
     1    18    19   ar
     2    19    20   ar
     3    19    17    1
     4    17     1    1
     5     1     2   ar
     6     2     3   ar
     7     3     4   ar
     8     4     5   ar
     9     5     6   ar
    10     6     7    1
    11     6     8   ar
    12     8     9   ar
    13     9    10   ar
    14     3    11    1
    15    11    12    1
    16    12    13   am
    17    13    14    2
    18    13    21    1
    19    21    22    1
    20    22    23   ar
    21    23    24   ar
    22    24    25   ar
    23    25    26   ar
    24    26    27   ar
    25    27    28   ar
    26    28    29   ar
    27    29    30   ar
    28    30    31   ar
    29    12    15    1
    30    15    16    1
    31    10     1   ar
    32    31    22   ar
    33    16     2    1
    34    10     4   ar
    35    31    26   ar
@<TRIPOS>MOLECULE
*****
 31 35 0 0 0
SMALL
GASTEIGER

@<TRIPOS>ATOM
      1 N          62.5154   85.3146   10.0256 N.ar    1  UNL1       -0.3256
      2 C          62.7320   86.4910   10.9307 C.ar    1  UNL1        0.0367
      3 C          63.1817   85.9728   12.2646 C.ar    1  UNL1        0.0109
      4 C          63.2430   84.4762   12.1838 C.ar    1  UNL1        0.0167
      5 C          63.6206   83.4313   13.1916 C.ar    1  UNL1        0.0308
      6 C          63.5864   81.9796   12.8155 C.ar    1  UNL1        0.1402
      7 F          63.9640   80.9346   13.8232 F       1  UNL1       -0.2042
      8 C          63.1746   81.5729   11.4316 C.ar    1  UNL1        0.0311
      9 C          62.7970   82.6178   10.4239 C.ar    1  UNL1        0.0195
     10 C          62.8312   84.0694   10.8000 C.ar    1  UNL1        0.0598
     11 C          63.4773   86.9306   13.3804 C.3     1  UNL1        0.1213
     12 N          63.3231   88.4067   13.1624 N.am    1  UNL1       -0.2747
     13 C          63.6187   89.3646   14.2783 C.2     1  UNL1        0.2303
     14 O          64.0684   88.8464   15.6122 O.2     1  UNL1       -0.2745
     15 C          62.8734   88.9249   11.8285 C.3     1  UNL1        0.0999
     16 C          62.5779   87.9670   10.7127 C.3     1  UNL1        0.0650
     17 C          62.0624   85.3732    8.5968 C.3     1  UNL1        0.1474
     18 O          59.9695   86.8007    9.1727 O.co2   1  UNL1       -0.5472
     19 C          60.6725   85.8318    8.2688 C.2     1  UNL1        0.0732
     20 O          59.9855   85.3215    7.0369 O.co2   1  UNL1       -0.5472
     21 C          63.4646   90.8406   14.0602 C.3     1  UNL1        0.1116
     22 C          64.5573   91.6174   13.3874 C.ar    1  UNL1       -0.0131
     23 C          64.5346   91.8093   11.8999 C.ar    1  UNL1       -0.0038
     24 C          65.6273   92.5861   11.2272 C.ar    1  UNL1       -0.0003
     25 C          66.7427   93.1709   12.0419 C.ar    1  UNL1       -0.0000
     26 C          66.7655   92.9790   13.5294 C.ar    1  UNL1       -0.0003
     27 C          67.8809   93.5638   14.3441 C.ar    1  UNL1       -0.0000
     28 C          67.9036   93.3719   15.8317 C.ar    1  UNL1       -0.0000
     29 C          66.8108   92.5951   16.5044 C.ar    1  UNL1       -0.0000
     30 C          65.6955   92.0103   15.6897 C.ar    1  UNL1       -0.0003
     31 C          65.6728   92.2022   14.2021 C.ar    1  UNL1       -0.0035
@<TRIPOS>UNITY_ATOM_ATTR
18 1
charge -1
@<TRIPOS>BOND
     1    18    19   ar
     2    19    20   ar
     3    19    17    1
     4    17     1    1
     5     1     2   ar
     6     2     3   ar
     7     3     4   ar
     8     4     5   ar
     9     5     6   ar
    10     6     7    1
    11     6     8   ar
    12     8     9   ar
    13     9    10   ar
    14     3    11    1
    15    11    12    1
    16    12    13   am
    17    13    14    2
    18    13    21    1
    19    21    22    1
    20    22    23   ar
    21    23    24   ar
    22    24    25   ar
    23    25    26   ar
    24    26    27   ar
    25    27    28   ar
    26    28    29   ar
    27    29    30   ar
    28    30    31   ar
    29    12    15    1
    30    15    16    1
    31    10     1   ar
    32    31    22   ar
    33    16     2    1
    34    10     4   ar
    35    31    26   ar
@<TRIPOS>MOLECULE
*****
 31 35 0 0 0
SMALL
GASTEIGER

@<TRIPOS>ATOM
      1 N          62.0320   86.8503   10.9867 N.ar    1  UNL1       -0.3256
      2 C          62.7344   88.1451   11.2694 C.ar    1  UNL1        0.0367
      3 C          63.4817   87.9945   12.5613 C.ar    1  UNL1        0.0109
      4 C          63.2411   86.6067   13.0770 C.ar    1  UNL1        0.0167
      5 C          63.7221   85.8955   14.3069 C.ar    1  UNL1        0.0308
      6 C          63.3071   84.4772   14.5637 C.ar    1  UNL1        0.1402
      7 F          63.7881   83.7659   15.7938 F       1  UNL1       -0.2042
      8 C          62.4111   83.7700   13.5906 C.ar    1  UNL1        0.0311
      9 C          61.9301   84.4811   12.3606 C.ar    1  UNL1        0.0195
     10 C          62.3451   85.8995   12.1038 C.ar    1  UNL1        0.0598
     11 C          64.2848   89.1407   13.1012 C.3     1  UNL1        0.1213
     12 N          64.3405   90.4374   12.3492 N.am    1  UNL1       -0.2747
     13 C          65.1436   91.5836   12.8891 C.2     1  UNL1        0.2303
     14 O          65.8909   91.4330   14.1809 O.2     1  UNL1       -0.2745
     15 C          63.5932   90.5880   11.0573 C.3     1  UNL1        0.0999
     16 C          62.7902   89.4418   10.5175 C.3     1  UNL1        0.0650
     17 C          61.1680   86.5576    9.7960 C.3     1  UNL1        0.1474
     18 O          63.1911   85.4643    8.5870 O.co2   1  UNL1       -0.5472
     19 C          61.7664   85.9335    8.5704 C.2     1  UNL1        0.0732
     20 O          60.9403   85.7784    7.3280 O.co2   1  UNL1       -0.5472
     21 C          65.1993   92.8802   12.1370 C.3     1  UNL1        0.1116
     22 C          66.2544   93.0969   11.0930 C.ar    1  UNL1       -0.0131
     23 C          67.3256   92.0678   10.8843 C.ar    1  UNL1       -0.0038
     24 C          68.3806   92.2845    9.8403 C.ar    1  UNL1       -0.0003
     25 C          68.3645   93.5303    9.0050 C.ar    1  UNL1       -0.0000
     26 C          67.2934   94.5594    9.2137 C.ar    1  UNL1       -0.0003
     27 C          67.2773   95.8053    8.3784 C.ar    1  UNL1       -0.0000
     28 C          66.2061   96.8344    8.5872 C.ar    1  UNL1       -0.0000
     29 C          65.1510   96.6176    9.6312 C.ar    1  UNL1       -0.0000
     30 C          65.1671   95.3719   10.4665 C.ar    1  UNL1       -0.0003
     31 C          66.2383   94.3427   10.2577 C.ar    1  UNL1       -0.0035
@<TRIPOS>UNITY_ATOM_ATTR
18 1
charge -1
@<TRIPOS>BOND
     1    18    19   ar
     2    19    20   ar
     3    19    17    1
     4    17     1    1
     5     1     2   ar
     6     2     3   ar
     7     3     4   ar
     8     4     5   ar
     9     5     6   ar
    10     6     7    1
    11     6     8   ar
    12     8     9   ar
    13     9    10   ar
    14     3    11    1
    15    11    12    1
    16    12    13   am
    17    13    14    2
    18    13    21    1
    19    21    22    1
    20    22    23   ar
    21    23    24   ar
    22    24    25   ar
    23    25    26   ar
    24    26    27   ar
    25    27    28   ar
    26    28    29   ar
    27    29    30   ar
    28    30    31   ar
    29    12    15    1
    30    15    16    1
    31    10     1   ar
    32    31    22   ar
    33    16     2    1
    34    10     4   ar
    35    31    26   ar
@<TRIPOS>MOLECULE
*****
 31 35 0 0 0
SMALL
GASTEIGER

@<TRIPOS>ATOM
      1 N          63.4470   85.4263   15.1417 N.ar    1  UNL1       -0.3256
      2 C          63.3860   86.6813   14.3223 C.ar    1  UNL1        0.0367
      3 C          63.1954   86.2890   12.8871 C.ar    1  UNL1        0.0109
      4 C          63.1386   84.7916   12.8195 C.ar    1  UNL1        0.0167
      5 C          62.9654   83.8447   11.6692 C.ar    1  UNL1        0.0308
      6 C          62.9476   82.3646   11.9122 C.ar    1  UNL1        0.1402
      7 F          62.7744   81.4176   10.7619 F       1  UNL1       -0.2042
      8 C          63.1031   81.8315   13.3056 C.ar    1  UNL1        0.0311
      9 C          63.2764   82.7784   14.4560 C.ar    1  UNL1        0.0195
     10 C          63.2941   84.2584   14.2129 C.ar    1  UNL1        0.0598
     11 C          63.0981   87.3459   11.8273 C.3     1  UNL1        0.1213
     12 N          63.1915   88.7952   12.2026 N.am    1  UNL1       -0.2747
     13 C          63.0943   89.8522   11.1426 C.2     1  UNL1        0.2303
     14 O          62.9037   89.4599    9.7074 O.2     1  UNL1       -0.2745
     15 C          63.3821   89.1876   13.6377 C.3     1  UNL1        0.0999
     16 C          63.4793   88.1306   14.6976 C.3     1  UNL1        0.0650
     17 C          63.6289   85.3523   16.6287 C.3     1  UNL1        0.1474
     18 O          61.2139   86.1756   17.1184 O.co2   1  UNL1       -0.5472
     19 C          62.6460   86.0267   17.5392 C.2     1  UNL1        0.0732
     20 O          63.0950   86.5521   18.8704 O.co2   1  UNL1       -0.5472
     21 C          63.1877   91.3015   11.5180 C.3     1  UNL1        0.1116
     22 C          64.5188   91.9932   11.5131 C.ar    1  UNL1       -0.0131
     23 C          65.0827   92.5253   10.2291 C.ar    1  UNL1       -0.0038
     24 C          66.4137   93.2170   10.2242 C.ar    1  UNL1       -0.0003
     25 C          67.1808   93.3764   11.5034 C.ar    1  UNL1       -0.0000
     26 C          66.6168   92.8443   12.7874 C.ar    1  UNL1       -0.0003
     27 C          67.3838   93.0037   14.0666 C.ar    1  UNL1       -0.0000
     28 C          66.8198   92.4715   15.3507 C.ar    1  UNL1       -0.0000
     29 C          65.4887   91.7799   15.3554 C.ar    1  UNL1       -0.0000
     30 C          64.7217   91.6204   14.0763 C.ar    1  UNL1       -0.0003
     31 C          65.2858   92.1526   12.7923 C.ar    1  UNL1       -0.0035
@<TRIPOS>UNITY_ATOM_ATTR
18 1
charge -1
@<TRIPOS>BOND
     1    18    19   ar
     2    19    20   ar
     3    19    17    1
     4    17     1    1
     5     1     2   ar
     6     2     3   ar
     7     3     4   ar
     8     4     5   ar
     9     5     6   ar
    10     6     7    1
    11     6     8   ar
    12     8     9   ar
    13     9    10   ar
    14     3    11    1
    15    11    12    1
    16    12    13   am
    17    13    14    2
    18    13    21    1
    19    21    22    1
    20    22    23   ar
    21    23    24   ar
    22    24    25   ar
    23    25    26   ar
    24    26    27   ar
    25    27    28   ar
    26    28    29   ar
    27    29    30   ar
    28    30    31   ar
    29    12    15    1
    30    15    16    1
    31    10     1   ar
    32    31    22   ar
    33    16     2    1
    34    10     4   ar
    35    31    26   ar
