@<TRIPOS>MOLECULE
*****
 37 40 0 0 0
SMALL
GASTEIGER

@<TRIPOS>ATOM
      1 C          63.4767   84.8077   13.4166 C.3     1  UNL1        0.3254
      2 F          62.0906   84.2457   13.3034 F       1  UNL1       -0.1949
      3 F          64.7346   85.6152   13.2911 F       1  UNL1       -0.1949
      4 C          61.4227   87.5546   10.5036 C.ar    1  UNL1        0.0889
      5 C          61.1650   86.0779   10.4513 C.ar    1  UNL1        0.0207
      6 C          61.8497   85.1623   11.4223 C.ar    1  UNL1        0.0217
      7 C          62.7921   85.7234   12.4456 C.ar    1  UNL1        0.1219
      8 N          63.0498   87.2001   12.4979 N.ar    1  UNL1       -0.2412
      9 C          62.3651   88.1158   11.5269 C.ar    1  UNL1        0.1163
     10 N          59.6261   89.3153    7.5477 N.ar    1  UNL1       -0.2005
     11 N          59.7429   90.4436    8.5293 N.ar    1  UNL1       -0.1442
     12 C          60.4301   89.9213    9.7560 C.ar    1  UNL1        0.2073
     13 N          60.7381   88.4703    9.5326 N.ar    1  UNL1       -0.2382
     14 C          60.2411   88.0958    8.1678 C.ar    1  UNL1        0.3523
     15 O          60.3416   86.7399    7.5342 O.2     1  UNL1       -0.2444
     16 C          59.0035   89.3930    6.1852 C.3     1  UNL1        0.1322
     17 C          60.4868   90.6315    5.3100 C.3     1  UNL1        0.0020
     18 C          58.9936   90.6937    5.4382 C.3     1  UNL1        0.0228
     19 C          57.5004   90.7559    5.5663 C.3     1  UNL1        0.0020
     20 C          58.9836   91.9944    4.6912 C.3     1  UNL1        0.0020
     21 C          64.1614   83.8921   14.3876 C.3     1  UNL1        0.1932
     22 O          64.8461   82.9764   15.3585 O.3     1  UNL1       -0.3755
     23 H          65.2551   83.5011   16.0645 H       1  UNL1        0.2110
     24 C          63.7328   82.7078   13.5730 C.ar    1  UNL1        0.0368
     25 C          62.7807   81.7038   14.1524 C.ar    1  UNL1        0.0028
     26 C          62.3521   80.5195   13.3378 C.ar    1  UNL1        0.0295
     27 C          62.8755   80.3390   11.9438 C.ar    1  UNL1        0.1424
     28 F          62.4469   79.1546   11.1292 F       1  UNL1       -0.2041
     29 C          63.8276   81.3429   11.3643 C.ar    1  UNL1        0.0590
     30 C          64.2562   82.5273   12.1789 C.ar    1  UNL1        0.1408
     31 F          65.2083   83.5311   11.5994 F       1  UNL1       -0.2043
     32 C          64.5900   85.0764   15.2021 C.3     1  UNL1        0.1679
     33 N          63.5743   85.8573   15.9824 N.ar    1  UNL1       -0.2078
     34 C          62.4015   85.2859   16.7225 C.ar    1  UNL1        0.2216
     35 N          61.6555   86.4221   17.3570 N.ar    1  UNL1       -0.1048
     36 N          62.3674   87.6958   17.0089 N.ar    1  UNL1       -0.0226
     37 N          63.5532   87.3467   16.1594 N.ar    1  UNL1       -0.0428
@<TRIPOS>BOND
     1    17    18    1
     2    18    19    1
     3    18    20    1
     4    18    16    1
     5    16    10    1
     6    10    11   ar
     7    11    12   ar
     8    12    13   ar
     9    13     4    1
    10     4     5   ar
    11     5     6   ar
    12     6     7   ar
    13     7     1    1
    14     1     2    1
    15     1     3    1
    16     1    21    1
    17    21    22    1
    18    21    32    1
    19    32    33    1
    20    33    34   ar
    21    34    35   ar
    22    35    36   ar
    23    36    37   ar
    24    21    24    1
    25    24    25   ar
    26    25    26   ar
    27    26    27   ar
    28    27    28    1
    29    27    29   ar
    30    29    30   ar
    31    30    31    1
    32     7     8   ar
    33     8     9   ar
    34    13    14   ar
    35    14    15    2
    36    14    10   ar
    37     9     4   ar
    38    37    33   ar
    39    30    24   ar
    40    22    23    1
@<TRIPOS>MOLECULE
*****
 37 40 0 0 0
SMALL
GASTEIGER

@<TRIPOS>ATOM
      1 C          63.3331   84.8070   12.9629 C.3     1  UNL1        0.3254
      2 F          64.2480   84.6851   11.7805 F       1  UNL1       -0.1949
      3 F          62.1966   85.0866   13.9010 F       1  UNL1       -0.1949
      4 C          61.0032   86.6595    9.5881 C.ar    1  UNL1        0.0889
      5 C          62.0019   85.5769    9.3043 C.ar    1  UNL1        0.0207
      6 C          62.7785   84.9594   10.4293 C.ar    1  UNL1        0.0217
      7 C          62.5565   85.4245   11.8379 C.ar    1  UNL1        0.1219
      8 N          61.5578   86.5071   12.1217 N.ar    1  UNL1       -0.2412
      9 C          60.7811   87.1246   10.9967 C.ar    1  UNL1        0.1163
     10 N          59.0392   88.8870    7.0888 N.ar    1  UNL1       -0.2005
     11 N          59.0237   87.5676    6.3752 N.ar    1  UNL1       -0.1442
     12 C          59.7575   86.5727    7.2246 C.ar    1  UNL1        0.2073
     13 N          60.2266   87.2771    8.4631 N.ar    1  UNL1       -0.2382
     14 C          59.7826   88.7074    8.3791 C.ar    1  UNL1        0.3523
     15 O          60.0373   89.7713    9.4053 O.2     1  UNL1       -0.2444
     16 C          58.4200   90.1621    6.5980 C.3     1  UNL1        0.1322
     17 C          57.6385   91.3883    5.0535 C.3     1  UNL1        0.0020
     18 C          58.9999   90.8682    5.4085 C.3     1  UNL1        0.0228
     19 C          60.3613   90.3481    5.7635 C.3     1  UNL1        0.0020
     20 C          59.5798   91.5744    4.2190 C.3     1  UNL1        0.0020
     21 C          64.1097   84.1895   14.0878 C.3     1  UNL1        0.1932
     22 O          64.8864   83.5719   15.2128 O.3     1  UNL1       -0.3755
     23 H          65.5039   84.2256   15.5765 H       1  UNL1        0.2110
     24 C          63.3714   82.8990   13.8892 C.ar    1  UNL1        0.0368
     25 C          62.1052   82.6347   14.6487 C.ar    1  UNL1        0.0028
     26 C          61.3668   81.3443   14.4500 C.ar    1  UNL1        0.0295
     27 C          61.8947   80.3180   13.4918 C.ar    1  UNL1        0.1424
     28 F          61.1563   79.0275   13.2932 F       1  UNL1       -0.2041
     29 C          63.1609   80.5822   12.7323 C.ar    1  UNL1        0.0590
     30 C          63.8993   81.8727   12.9310 C.ar    1  UNL1        0.1408
     31 F          65.1655   82.1370   12.1714 F       1  UNL1       -0.2043
     32 C          64.8481   85.4799   14.2865 C.3     1  UNL1        0.1679
     33 N          64.2188   86.5904   15.0746 N.ar    1  UNL1       -0.2078
     34 C          64.2331   88.0461   14.7131 C.ar    1  UNL1        0.2216
     35 N          63.4880   88.7954   15.7776 N.ar    1  UNL1       -0.1048
     36 N          63.0131   87.8028   16.7972 N.ar    1  UNL1       -0.0226
     37 N          63.4649   86.4401   16.3626 N.ar    1  UNL1       -0.0428
@<TRIPOS>BOND
     1    17    18    1
     2    18    19    1
     3    18    20    1
     4    18    16    1
     5    16    10    1
     6    10    11   ar
     7    11    12   ar
     8    12    13   ar
     9    13     4    1
    10     4     5   ar
    11     5     6   ar
    12     6     7   ar
    13     7     1    1
    14     1     2    1
    15     1     3    1
    16     1    21    1
    17    21    22    1
    18    21    32    1
    19    32    33    1
    20    33    34   ar
    21    34    35   ar
    22    35    36   ar
    23    36    37   ar
    24    21    24    1
    25    24    25   ar
    26    25    26   ar
    27    26    27   ar
    28    27    28    1
    29    27    29   ar
    30    29    30   ar
    31    30    31    1
    32     7     8   ar
    33     8     9   ar
    34    13    14   ar
    35    14    15    2
    36    14    10   ar
    37     9     4   ar
    38    37    33   ar
    39    30    24   ar
    40    22    23    1
@<TRIPOS>MOLECULE
*****
 37 40 0 0 0
SMALL
GASTEIGER

@<TRIPOS>ATOM
      1 C          63.4032   84.6274   12.7617 C.3     1  UNL1        0.3254
      2 F          62.0726   84.9174   13.3906 F       1  UNL1       -0.1949
      3 F          64.5792   84.4934   11.8403 F       1  UNL1       -0.1949
      4 C          61.0547   86.6109    9.4753 C.ar    1  UNL1        0.0889
      5 C          62.0907   85.5795    9.1394 C.ar    1  UNL1        0.0207
      6 C          62.8735   84.9184   10.2348 C.ar    1  UNL1        0.0217
      7 C          62.6203   85.2886   11.6662 C.ar    1  UNL1        0.1219
      8 N          61.5843   86.3200   12.0021 N.ar    1  UNL1       -0.2412
      9 C          60.8015   86.9811   10.9067 C.ar    1  UNL1        0.1163
     10 N          59.0768   88.9346    7.0765 N.ar    1  UNL1       -0.2005
     11 N          59.0575   87.6444    6.3116 N.ar    1  UNL1       -0.1442
     12 C          59.7961   86.6169    7.1171 C.ar    1  UNL1        0.2073
     13 N          60.2718   87.2721    8.3798 N.ar    1  UNL1       -0.2382
     14 C          59.8273   88.7045    8.3547 C.ar    1  UNL1        0.3523
     15 O          60.0876   89.7272    9.4206 O.2     1  UNL1       -0.2444
     16 C          58.4548   90.2278    6.6398 C.3     1  UNL1        0.1322
     17 C          60.3625   90.5360    5.7649 C.3     1  UNL1        0.0020
     18 C          58.9578   90.9245    5.4104 C.3     1  UNL1        0.0228
     19 C          57.5531   91.3131    5.0559 C.3     1  UNL1        0.0020
     20 C          59.4608   91.6212    4.1810 C.3     1  UNL1        0.0020
     21 C          64.1860   83.9663   13.8571 C.3     1  UNL1        0.1932
     22 O          64.9689   83.3051   14.9526 O.3     1  UNL1       -0.3755
     23 H          65.3100   82.4534   14.6376 H       1  UNL1        0.2110
     24 C          63.9035   85.1294   14.7611 C.ar    1  UNL1        0.0368
     25 C          64.5048   86.4717   14.4664 C.ar    1  UNL1        0.0028
     26 C          64.2222   87.6349   15.3703 C.ar    1  UNL1        0.0295
     27 C          63.3385   87.4558   16.5690 C.ar    1  UNL1        0.1424
     28 F          63.0560   88.6190   17.4730 F       1  UNL1       -0.2041
     29 C          62.7372   86.1136   16.8638 C.ar    1  UNL1        0.0590
     30 C          63.0198   84.9503   15.9598 C.ar    1  UNL1        0.1408
     31 F          62.4185   83.6081   16.2545 F       1  UNL1       -0.2043
     32 C          64.4686   82.8031   12.9531 C.3     1  UNL1        0.1679
     33 N          63.6037   81.5790   13.0134 N.ar    1  UNL1       -0.2078
     34 C          63.0823   80.8090   11.8364 C.ar    1  UNL1        0.2216
     35 N          62.2648   79.6641   12.3569 N.ar    1  UNL1       -0.1048
     36 N          62.2809   79.7265   13.8555 N.ar    1  UNL1       -0.0226
     37 N          63.1084   80.9099   14.2612 N.ar    1  UNL1       -0.0428
@<TRIPOS>BOND
     1    17    18    1
     2    18    19    1
     3    18    20    1
     4    18    16    1
     5    16    10    1
     6    10    11   ar
     7    11    12   ar
     8    12    13   ar
     9    13     4    1
    10     4     5   ar
    11     5     6   ar
    12     6     7   ar
    13     7     1    1
    14     1     2    1
    15     1     3    1
    16     1    21    1
    17    21    22    1
    18    21    32    1
    19    32    33    1
    20    33    34   ar
    21    34    35   ar
    22    35    36   ar
    23    36    37   ar
    24    21    24    1
    25    24    25   ar
    26    25    26   ar
    27    26    27   ar
    28    27    28    1
    29    27    29   ar
    30    29    30   ar
    31    30    31    1
    32     7     8   ar
    33     8     9   ar
    34    13    14   ar
    35    14    15    2
    36    14    10   ar
    37     9     4   ar
    38    37    33   ar
    39    30    24   ar
    40    22    23    1
@<TRIPOS>MOLECULE
*****
 37 40 0 0 0
SMALL
GASTEIGER

@<TRIPOS>ATOM
      1 C          61.4531   87.6689   10.5591 C.3     1  UNL1        0.3254
      2 F          62.6812   88.0126    9.7694 F       1  UNL1       -0.1949
      3 F          60.3824   87.5378   11.6014 F       1  UNL1       -0.1949
      4 C          63.7983   90.3528   13.3061 C.ar    1  UNL1        0.0889
      5 C          62.9725   90.9458   12.2033 C.ar    1  UNL1        0.0207
      6 C          62.1907   90.0512   11.2877 C.ar    1  UNL1        0.0217
      7 C          62.2349   88.5635   11.4748 C.ar    1  UNL1        0.1219
      8 N          63.0607   87.9706   12.5777 N.ar    1  UNL1       -0.2412
      9 C          63.8425   88.8652   13.4933 C.ar    1  UNL1        0.1163
     10 N          66.2561   92.7838   15.0712 N.ar    1  UNL1       -0.2005
     11 N          65.3101   92.4645   16.1908 N.ar    1  UNL1       -0.1442
     12 C          64.2744   91.5150   15.6658 C.ar    1  UNL1        0.2073
     13 N          64.5801   91.2475   14.2219 N.ar    1  UNL1       -0.2382
     14 C          65.8049   92.0317   13.8544 C.ar    1  UNL1        0.3523
     15 O          66.4630   92.0589   12.5068 O.2     1  UNL1       -0.2444
     16 C          67.4445   93.6953   15.1540 C.3     1  UNL1        0.1322
     17 C          68.3212   91.7961   15.5067 C.3     1  UNL1        0.0020
     18 C          68.7149   93.2153   15.7911 C.3     1  UNL1        0.0228
     19 C          69.1085   94.6345   16.0755 C.3     1  UNL1        0.0020
     20 C          69.9852   92.7353   16.4282 C.3     1  UNL1        0.0020
     21 C          60.6713   86.7743    9.6435 C.3     1  UNL1        0.1932
     22 O          59.8895   85.8796    8.7278 O.3     1  UNL1       -0.3755
     23 H          59.0788   86.3325    8.4478 H       1  UNL1        0.2110
     24 C          61.7246   85.7150    9.7790 C.ar    1  UNL1        0.0368
     25 C          62.0016   85.0998   11.1188 C.ar    1  UNL1        0.0028
     26 C          63.0549   84.0405   11.2544 C.ar    1  UNL1        0.0295
     27 C          63.8314   83.5965   10.0502 C.ar    1  UNL1        0.1424
     28 F          64.8848   82.5372   10.1858 F       1  UNL1       -0.2041
     29 C          63.5545   84.2117    8.7105 C.ar    1  UNL1        0.0590
     30 C          62.5011   85.2710    8.5749 C.ar    1  UNL1        0.1408
     31 F          62.2243   85.8862    7.2352 F       1  UNL1       -0.2043
     32 C          59.6180   87.8335    9.5079 C.3     1  UNL1        0.1679
     33 N          59.5015   88.6168    8.2339 N.ar    1  UNL1       -0.2078
     34 C          60.2228   89.8924    7.9141 C.ar    1  UNL1        0.2216
     35 N          59.8104   90.3259    6.5386 N.ar    1  UNL1       -0.1048
     36 N          58.8341   89.3180    6.0083 N.ar    1  UNL1       -0.0226
     37 N          58.6432   88.2618    7.0560 N.ar    1  UNL1       -0.0428
@<TRIPOS>BOND
     1    17    18    1
     2    18    19    1
     3    18    20    1
     4    18    16    1
     5    16    10    1
     6    10    11   ar
     7    11    12   ar
     8    12    13   ar
     9    13     4    1
    10     4     5   ar
    11     5     6   ar
    12     6     7   ar
    13     7     1    1
    14     1     2    1
    15     1     3    1
    16     1    21    1
    17    21    22    1
    18    21    32    1
    19    32    33    1
    20    33    34   ar
    21    34    35   ar
    22    35    36   ar
    23    36    37   ar
    24    21    24    1
    25    24    25   ar
    26    25    26   ar
    27    26    27   ar
    28    27    28    1
    29    27    29   ar
    30    29    30   ar
    31    30    31    1
    32     7     8   ar
    33     8     9   ar
    34    13    14   ar
    35    14    15    2
    36    14    10   ar
    37     9     4   ar
    38    37    33   ar
    39    30    24   ar
    40    22    23    1
@<TRIPOS>MOLECULE
*****
 37 40 0 0 0
SMALL
GASTEIGER

@<TRIPOS>ATOM
      1 C          61.3727   88.2519    9.8132 C.3     1  UNL1        0.3254
      2 F          62.7103   88.0106    9.1786 F       1  UNL1       -0.1949
      3 F          60.2222   88.7394   10.6428 F       1  UNL1       -0.1949
      4 C          64.1150   91.1259   11.9273 C.ar    1  UNL1        0.0889
      5 C          63.6442   91.4251   10.5350 C.ar    1  UNL1        0.0207
      6 C          62.7301   90.4671    9.8303 C.ar    1  UNL1        0.0217
      7 C          62.2869   89.2099   10.5179 C.ar    1  UNL1        0.1219
      8 N          62.7577   88.9107   11.9103 N.ar    1  UNL1       -0.2412
      9 C          63.6718   89.8687   12.6150 C.ar    1  UNL1        0.1163
     10 N          66.3644   93.1612   14.3489 N.ar    1  UNL1       -0.2005
     11 N          66.5072   93.9552   13.0842 N.ar    1  UNL1       -0.1442
     12 C          65.6819   93.2894   12.0233 C.ar    1  UNL1        0.2073
     13 N          65.0291   92.0840   12.6321 N.ar    1  UNL1       -0.2382
     14 C          65.4509   92.0047   14.0694 C.ar    1  UNL1        0.3523
     15 O          65.0327   90.9535   15.0543 O.2     1  UNL1       -0.2444
     16 C          67.0200   93.4695   15.6623 C.3     1  UNL1        0.1322
     17 C          68.8299   94.5233   15.9993 C.3     1  UNL1        0.0020
     18 C          68.4481   93.0763   15.8983 C.3     1  UNL1        0.0228
     19 C          68.0663   91.6292   15.7974 C.3     1  UNL1        0.0020
     20 C          69.8763   92.6830   16.1343 C.3     1  UNL1        0.0020
     21 C          60.4586   87.2939    9.1085 C.3     1  UNL1        0.1932
     22 O          59.5445   86.3358    8.4037 O.3     1  UNL1       -0.3755
     23 H          58.7382   86.8003    8.1299 H       1  UNL1        0.2110
     24 C          61.4579   86.1933    9.3084 C.ar    1  UNL1        0.0368
     25 C          62.2171   85.6473    8.1355 C.ar    1  UNL1        0.0028
     26 C          63.2164   84.5467    8.3354 C.ar    1  UNL1        0.0295
     27 C          63.4566   83.9920    9.7082 C.ar    1  UNL1        0.1424
     28 F          64.4559   82.8913    9.9081 F       1  UNL1       -0.2041
     29 C          62.6975   84.5379   10.8811 C.ar    1  UNL1        0.0590
     30 C          61.6981   85.6386   10.6812 C.ar    1  UNL1        0.1408
     31 F          60.9390   86.1845   11.8541 F       1  UNL1       -0.2043
     32 C          59.4594   88.3945    8.9085 C.3     1  UNL1        0.1679
     33 N          59.4119   89.1370    7.6060 N.ar    1  UNL1       -0.2078
     34 C          58.2050   89.3075    6.7317 C.ar    1  UNL1        0.2216
     35 N          58.6103   90.1152    5.5345 N.ar    1  UNL1       -0.1048
     36 N          60.0677   90.4439    5.6688 N.ar    1  UNL1       -0.0226
     37 N          60.5631   89.8393    6.9491 N.ar    1  UNL1       -0.0428
@<TRIPOS>BOND
     1    17    18    1
     2    18    19    1
     3    18    20    1
     4    18    16    1
     5    16    10    1
     6    10    11   ar
     7    11    12   ar
     8    12    13   ar
     9    13     4    1
    10     4     5   ar
    11     5     6   ar
    12     6     7   ar
    13     7     1    1
    14     1     2    1
    15     1     3    1
    16     1    21    1
    17    21    22    1
    18    21    32    1
    19    32    33    1
    20    33    34   ar
    21    34    35   ar
    22    35    36   ar
    23    36    37   ar
    24    21    24    1
    25    24    25   ar
    26    25    26   ar
    27    26    27   ar
    28    27    28    1
    29    27    29   ar
    30    29    30   ar
    31    30    31    1
    32     7     8   ar
    33     8     9   ar
    34    13    14   ar
    35    14    15    2
    36    14    10   ar
    37     9     4   ar
    38    37    33   ar
    39    30    24   ar
    40    22    23    1
@<TRIPOS>MOLECULE
*****
 37 40 0 0 0
SMALL
GASTEIGER

@<TRIPOS>ATOM
      1 C          61.9634   87.6763   10.5303 C.3     1  UNL1        0.3254
      2 F          61.4825   87.2319   11.8798 F       1  UNL1       -0.1949
      3 F          62.6375   88.3604    9.3781 F       1  UNL1       -0.1949
      4 C          64.1094   90.3972   13.4010 C.ar    1  UNL1        0.0889
      5 C          63.5726   90.9418   12.1106 C.ar    1  UNL1        0.0207
      6 C          62.8573   90.0348   11.1537 C.ar    1  UNL1        0.0217
      7 C          62.6788   88.5833   11.4873 C.ar    1  UNL1        0.1219
      8 N          63.2156   88.0387   12.7777 N.ar    1  UNL1       -0.2412
      9 C          63.9309   88.9457   13.7346 C.ar    1  UNL1        0.1163
     10 N          66.4279   92.8649   15.2987 N.ar    1  UNL1       -0.2005
     11 N          65.4231   92.5349   16.3625 N.ar    1  UNL1       -0.1442
     12 C          64.4324   91.5704   15.7811 C.ar    1  UNL1        0.2073
     13 N          64.8248   91.3042   14.3580 N.ar    1  UNL1       -0.2382
     14 C          66.0580   92.1043   14.0599 C.ar    1  UNL1        0.3523
     15 O          66.7926   92.1379   12.7525 O.2     1  UNL1       -0.2444
     16 C          67.5972   93.7926   15.4476 C.3     1  UNL1        0.1322
     17 C          68.3811   91.8752   15.9047 C.3     1  UNL1        0.0020
     18 C          68.8946   93.2813   16.0001 C.3     1  UNL1        0.0228
     19 C          69.4080   94.6875   16.0956 C.3     1  UNL1        0.0020
     20 C          70.1920   92.7701   16.5527 C.3     1  UNL1        0.0020
     21 C          61.2482   86.7693    9.5733 C.3     1  UNL1        0.1932
     22 O          60.5328   85.8623    8.6164 O.3     1  UNL1       -0.3755
     23 H          59.8593   86.3673    8.1344 H       1  UNL1        0.2110
     24 C          62.1000   85.6205   10.0254 C.ar    1  UNL1        0.0368
     25 C          61.9329   85.0610   11.4072 C.ar    1  UNL1        0.0028
     26 C          62.7848   83.9122   11.8592 C.ar    1  UNL1        0.0295
     27 C          63.8038   83.3227   10.9296 C.ar    1  UNL1        0.1424
     28 F          64.6557   82.1738   11.3817 F       1  UNL1       -0.2041
     29 C          63.9709   83.8821    9.5479 C.ar    1  UNL1        0.0590
     30 C          63.1190   85.0310    9.0958 C.ar    1  UNL1        0.1408
     31 F          63.2861   85.5904    7.7141 F       1  UNL1       -0.2043
     32 C          60.3963   87.9182    9.1213 C.3     1  UNL1        0.1679
     33 N          59.8492   88.8875   10.1269 N.ar    1  UNL1       -0.2078
     34 C          59.1885   88.5317   11.4257 C.ar    1  UNL1        0.2216
     35 N          58.7978   89.8071   12.1117 N.ar    1  UNL1       -0.1048
     36 N          59.2171   90.9512   11.2370 N.ar    1  UNL1       -0.0226
     37 N          59.8669   90.3829   10.0103 N.ar    1  UNL1       -0.0428
@<TRIPOS>BOND
     1    17    18    1
     2    18    19    1
     3    18    20    1
     4    18    16    1
     5    16    10    1
     6    10    11   ar
     7    11    12   ar
     8    12    13   ar
     9    13     4    1
    10     4     5   ar
    11     5     6   ar
    12     6     7   ar
    13     7     1    1
    14     1     2    1
    15     1     3    1
    16     1    21    1
    17    21    22    1
    18    21    32    1
    19    32    33    1
    20    33    34   ar
    21    34    35   ar
    22    35    36   ar
    23    36    37   ar
    24    21    24    1
    25    24    25   ar
    26    25    26   ar
    27    26    27   ar
    28    27    28    1
    29    27    29   ar
    30    29    30   ar
    31    30    31    1
    32     7     8   ar
    33     8     9   ar
    34    13    14   ar
    35    14    15    2
    36    14    10   ar
    37     9     4   ar
    38    37    33   ar
    39    30    24   ar
    40    22    23    1
@<TRIPOS>MOLECULE
*****
 37 40 0 0 0
SMALL
GASTEIGER

@<TRIPOS>ATOM
      1 C          63.2172   83.9199   11.7675 C.3     1  UNL1        0.3254
      2 F          62.0051   84.2320   12.5941 F       1  UNL1       -0.1949
      3 F          64.2960   83.8722   10.7264 F       1  UNL1       -0.1949
      4 C          61.1675   87.2172    9.4924 C.ar    1  UNL1        0.0889
      5 C          60.9243   87.0578   10.9639 C.ar    1  UNL1        0.0207
      6 C          61.6076   85.9588   11.7222 C.ar    1  UNL1        0.0217
      7 C          62.5340   85.0190   11.0090 C.ar    1  UNL1        0.1219
      8 N          62.7771   85.1783    9.5375 N.ar    1  UNL1       -0.2412
      9 C          62.0939   86.2774    8.7792 C.ar    1  UNL1        0.1163
     10 N          59.1834   89.5075    7.0668 N.ar    1  UNL1       -0.2005
     11 N          59.6823   90.5079    8.0671 N.ar    1  UNL1       -0.1442
     12 C          60.4862   89.7716    9.0974 C.ar    1  UNL1        0.2073
     13 N          60.4842   88.3163    8.7339 N.ar    1  UNL1       -0.2382
     14 C          59.6791   88.1531    7.4789 C.ar    1  UNL1        0.3523
     15 O          59.4157   86.8622    6.7619 O.2     1  UNL1       -0.2444
     16 C          58.3374   89.8088    5.8653 C.3     1  UNL1        0.1322
     17 C          57.1178   91.3614    5.0897 C.3     1  UNL1        0.0020
     18 C          58.5857   91.0538    5.0663 C.3     1  UNL1        0.0228
     19 C          60.0536   90.7462    5.0430 C.3     1  UNL1        0.0020
     20 C          58.8339   92.2988    4.2674 C.3     1  UNL1        0.0020
     21 C          63.9005   82.8208   12.5258 C.3     1  UNL1        0.1932
     22 O          64.5838   81.7217   13.2842 O.3     1  UNL1       -0.3755
     23 H          64.8080   81.0001   12.6760 H       1  UNL1        0.2110
     24 C          63.7744   83.6157   13.7915 C.ar    1  UNL1        0.0368
     25 C          64.6785   84.7878   14.0344 C.ar    1  UNL1        0.0028
     26 C          64.5524   85.5827   15.3001 C.ar    1  UNL1        0.0295
     27 C          63.5221   85.2056   16.3231 C.ar    1  UNL1        0.1424
     28 F          63.3960   86.0007   17.5889 F       1  UNL1       -0.2041
     29 C          62.6180   84.0337   16.0803 C.ar    1  UNL1        0.0590
     30 C          62.7441   83.2387   14.8145 C.ar    1  UNL1        0.1408
     31 F          61.8400   82.0667   14.5717 F       1  UNL1       -0.2043
     32 C          64.0266   82.0258   11.2601 C.3     1  UNL1        0.1679
     33 N          63.3704   80.6814   11.1502 N.ar    1  UNL1       -0.2078
     34 C          63.2138   79.8768    9.8941 C.ar    1  UNL1        0.2216
     35 N          62.5023   78.6037   10.2448 N.ar    1  UNL1       -0.1048
     36 N          62.2192   78.6215   11.7178 N.ar    1  UNL1       -0.0226
     37 N          62.7558   79.9056   12.2773 N.ar    1  UNL1       -0.0428
@<TRIPOS>BOND
     1    17    18    1
     2    18    19    1
     3    18    20    1
     4    18    16    1
     5    16    10    1
     6    10    11   ar
     7    11    12   ar
     8    12    13   ar
     9    13     4    1
    10     4     5   ar
    11     5     6   ar
    12     6     7   ar
    13     7     1    1
    14     1     2    1
    15     1     3    1
    16     1    21    1
    17    21    22    1
    18    21    32    1
    19    32    33    1
    20    33    34   ar
    21    34    35   ar
    22    35    36   ar
    23    36    37   ar
    24    21    24    1
    25    24    25   ar
    26    25    26   ar
    27    26    27   ar
    28    27    28    1
    29    27    29   ar
    30    29    30   ar
    31    30    31    1
    32     7     8   ar
    33     8     9   ar
    34    13    14   ar
    35    14    15    2
    36    14    10   ar
    37     9     4   ar
    38    37    33   ar
    39    30    24   ar
    40    22    23    1
@<TRIPOS>MOLECULE
*****
 37 40 0 0 0
SMALL
GASTEIGER

@<TRIPOS>ATOM
      1 C          62.8862   87.3817   12.0812 C.3     1  UNL1        0.3254
      2 F          62.6927   87.9824   10.7204 F       1  UNL1       -0.1949
      3 F          63.2405   87.1020   13.5116 F       1  UNL1       -0.1949
      4 C          64.7502   91.4636   12.4181 C.ar    1  UNL1        0.0889
      5 C          64.8851   90.4823   13.5444 C.ar    1  UNL1        0.0207
      6 C          64.2638   89.1217   13.4321 C.ar    1  UNL1        0.0217
      7 C          63.5075   88.7424   12.1935 C.ar    1  UNL1        0.1219
      8 N          63.3726   89.7238   11.0671 N.ar    1  UNL1       -0.2412
      9 C          63.9939   91.0844   11.1794 C.ar    1  UNL1        0.1163
     10 N          66.2695   95.0059   11.9606 N.ar    1  UNL1       -0.2005
     11 N          66.3858   94.8303   13.4458 N.ar    1  UNL1       -0.1442
     12 C          65.8308   93.4820   13.7979 C.ar    1  UNL1        0.2073
     13 N          65.3715   92.8243   12.5304 N.ar    1  UNL1       -0.2382
     14 C          65.6427   93.7662   11.3949 C.ar    1  UNL1        0.3523
     15 O          65.3401   93.5128    9.9477 O.2     1  UNL1       -0.2444
     16 C          66.7038   96.2100   11.1785 C.3     1  UNL1        0.1322
     17 C          67.4832   96.0283    9.2140 C.3     1  UNL1        0.0020
     18 C          66.1650   96.4420    9.7980 C.3     1  UNL1        0.0228
     19 C          64.8468   96.8557   10.3820 C.3     1  UNL1        0.0020
     20 C          65.6262   96.6740    8.4175 C.3     1  UNL1        0.0020
     21 C          62.2649   86.0211   11.9690 C.3     1  UNL1        0.1932
     22 O          61.6435   84.6604   11.8567 O.3     1  UNL1       -0.3755
     23 H          61.9932   84.0866   12.5563 H       1  UNL1        0.2110
     24 C          61.4717   86.4812   10.7819 C.ar    1  UNL1        0.0368
     25 C          60.3616   87.4740   10.9607 C.ar    1  UNL1        0.0028
     26 C          59.5684   87.9341    9.7736 C.ar    1  UNL1        0.0295
     27 C          59.8854   87.4014    8.4077 C.ar    1  UNL1        0.1424
     28 F          59.0922   87.8615    7.2206 F       1  UNL1       -0.2041
     29 C          60.9955   86.4086    8.2288 C.ar    1  UNL1        0.0590
     30 C          61.7887   85.9485    9.4159 C.ar    1  UNL1        0.1408
     31 F          62.8989   84.9558    9.2371 F       1  UNL1       -0.2043
     32 C          63.0580   85.5610   13.1560 C.3     1  UNL1        0.1679
     33 N          63.4416   84.1168   13.2878 N.ar    1  UNL1       -0.2078
     34 C          63.2892   83.2728   14.5183 C.ar    1  UNL1        0.2216
     35 N          63.7983   81.8975   14.2031 N.ar    1  UNL1       -0.1048
     36 N          64.2655   81.8916   12.7776 N.ar    1  UNL1       -0.0226
     37 N          64.0450   83.2632   12.2120 N.ar    1  UNL1       -0.0428
@<TRIPOS>BOND
     1    17    18    1
     2    18    19    1
     3    18    20    1
     4    18    16    1
     5    16    10    1
     6    10    11   ar
     7    11    12   ar
     8    12    13   ar
     9    13     4    1
    10     4     5   ar
    11     5     6   ar
    12     6     7   ar
    13     7     1    1
    14     1     2    1
    15     1     3    1
    16     1    21    1
    17    21    22    1
    18    21    32    1
    19    32    33    1
    20    33    34   ar
    21    34    35   ar
    22    35    36   ar
    23    36    37   ar
    24    21    24    1
    25    24    25   ar
    26    25    26   ar
    27    26    27   ar
    28    27    28    1
    29    27    29   ar
    30    29    30   ar
    31    30    31    1
    32     7     8   ar
    33     8     9   ar
    34    13    14   ar
    35    14    15    2
    36    14    10   ar
    37     9     4   ar
    38    37    33   ar
    39    30    24   ar
    40    22    23    1
