@<TRIPOS>MOLECULE
*****
 22 24 0 0 0
SMALL
GASTEIGER

@<TRIPOS>ATOM
      1 C          63.8747   81.5830   13.4734 C.2     1  UNL1        0.4049
      2 O          64.5931   81.3803   12.1724 O.2     1  UNL1       -0.2262
      3 N          63.7772   82.9557   14.0703 N.am    1  UNL1       -0.2459
      4 C          63.1614   83.5314   15.3111 C.3     1  UNL1        0.0989
      5 C          63.6392   84.8969   14.9145 C.3     1  UNL1        0.0443
      6 C          64.1169   86.2624   14.5179 C.3     1  UNL1        0.0263
      7 C          63.5012   86.8382   15.7587 C.2     1  UNL1       -0.0358
      8 C          63.4036   88.2108   16.3556 C.2     1  UNL1        0.0411
      9 C          63.0234   85.4726   16.1553 C.3     1  UNL1        0.0263
     10 C          64.2549   84.3212   13.6738 C.3     1  UNL1        0.0989
     11 C          64.0244   89.3807   15.6515 C.1     1  UNL1       -0.0583
     12 C          64.6452   90.5507   14.9473 C.1     1  UNL1       -0.0405
     13 C          65.2660   91.7206   14.2431 C.ar    1  UNL1        0.1224
     14 C          66.1132   92.6934   15.0087 C.ar    1  UNL1        0.0276
     15 C          66.7340   93.8634   14.3045 C.ar    1  UNL1        0.0034
     16 C          66.5077   94.0605   12.8349 C.ar    1  UNL1        0.0148
     17 C          65.6605   93.0878   12.0693 C.ar    1  UNL1        0.0600
     18 C          65.4341   93.2850   10.5997 C.3     1  UNL1        0.0521
     19 N          65.0396   91.9178   12.7735 N.ar    1  UNL1       -0.2414
     20 O          63.2539   80.4131   14.1776 O.3     1  UNL1       -0.4345
     21 C          60.6757   80.7299   14.1276 C.3     1  UNL1        0.0513
     22 C          61.8933   79.9293   13.7718 C.3     1  UNL1        0.2102
@<TRIPOS>BOND
     1    21    22    1
     2    22    20    1
     3    20     1    1
     4     1     2    2
     5     1     3   am
     6     3     4    1
     7     4     5    1
     8     5     6    1
     9     6     7    1
    10     7     8    2
    11     8    11    1
    12    11    12    3
    13    12    13    1
    14    13    14   ar
    15    14    15   ar
    16    15    16   ar
    17    16    17   ar
    18    17    18    1
    19    17    19   ar
    20     7     9    1
    21     5    10    1
    22    10     3    1
    23     9     5    1
    24    19    13   ar
@<TRIPOS>MOLECULE
*****
 22 24 0 0 0
SMALL
GASTEIGER

@<TRIPOS>ATOM
      1 C          63.1275   80.8454   13.1102 C.2     1  UNL1        0.4049
      2 O          63.8888   80.3239   14.2927 O.2     1  UNL1       -0.2262
      3 N          63.0678   82.3211   12.8480 N.am    1  UNL1       -0.2459
      4 C          62.4282   83.1879   11.8041 C.3     1  UNL1        0.0989
      5 C          62.9833   84.4081   12.4773 C.3     1  UNL1        0.0443
      6 C          63.5383   85.6283   13.1505 C.3     1  UNL1        0.0263
      7 C          62.8988   86.4951   12.1066 C.2     1  UNL1       -0.0358
      8 C          62.8390   87.9708   11.8444 C.2     1  UNL1        0.0411
      9 C          62.3438   85.2749   11.4334 C.3     1  UNL1        0.0263
     10 C          63.6228   83.5413   13.5212 C.3     1  UNL1        0.0989
     11 C          63.5406   88.9250   12.7648 C.1     1  UNL1       -0.0583
     12 C          64.2422   89.8794   13.6852 C.1     1  UNL1       -0.0405
     13 C          64.9438   90.8336   14.6056 C.ar    1  UNL1        0.1224
     14 C          64.2248   91.3908   15.7984 C.ar    1  UNL1        0.0276
     15 C          64.9264   92.3450   16.7188 C.ar    1  UNL1        0.0034
     16 C          66.3470   92.7421   16.4465 C.ar    1  UNL1        0.0148
     17 C          67.0660   92.1850   15.2538 C.ar    1  UNL1        0.0600
     18 C          68.4867   92.5821   14.9815 C.3     1  UNL1        0.0521
     19 N          66.3645   91.2307   14.3333 N.ar    1  UNL1       -0.2414
     20 O          62.4259   79.8911   12.1898 O.3     1  UNL1       -0.4345
     21 C          62.8436   78.4723   10.0537 C.3     1  UNL1        0.0513
     22 C          62.8343   79.8014   10.7492 C.3     1  UNL1        0.2102
@<TRIPOS>BOND
     1    21    22    1
     2    22    20    1
     3    20     1    1
     4     1     2    2
     5     1     3   am
     6     3     4    1
     7     4     5    1
     8     5     6    1
     9     6     7    1
    10     7     8    2
    11     8    11    1
    12    11    12    3
    13    12    13    1
    14    13    14   ar
    15    14    15   ar
    16    15    16   ar
    17    16    17   ar
    18    17    18    1
    19    17    19   ar
    20     7     9    1
    21     5    10    1
    22    10     3    1
    23     9     5    1
    24    19    13   ar
@<TRIPOS>MOLECULE
*****
 22 24 0 0 0
SMALL
GASTEIGER

@<TRIPOS>ATOM
      1 C          62.9437   82.6451   14.1462 C.2     1  UNL1        0.4049
      2 O          63.9201   82.5779   15.2829 O.2     1  UNL1       -0.2262
      3 N          62.8009   83.9108   13.3540 N.am    1  UNL1       -0.2459
      4 C          61.9609   84.3439   12.1891 C.3     1  UNL1        0.0989
      5 C          62.5989   85.7008   12.2336 C.3     1  UNL1        0.0443
      6 C          63.2369   87.0577   12.2782 C.3     1  UNL1        0.0263
      7 C          62.3969   87.4908   11.1132 C.2     1  UNL1       -0.0358
      8 C          62.2541   88.7565   10.3210 C.2     1  UNL1        0.0411
      9 C          61.7590   86.1339   11.0687 C.3     1  UNL1        0.0263
     10 C          63.4388   85.2677   13.3985 C.3     1  UNL1        0.0989
     11 C          63.0877   89.9550   10.6655 C.1     1  UNL1       -0.0583
     12 C          63.9212   91.1536   11.0100 C.1     1  UNL1       -0.0405
     13 C          64.7548   92.3521   11.3544 C.ar    1  UNL1        0.1224
     14 C          65.0053   93.4128   10.3237 C.ar    1  UNL1        0.0276
     15 C          65.8389   94.6113   10.6682 C.ar    1  UNL1        0.0034
     16 C          66.4219   94.7492   12.0433 C.ar    1  UNL1        0.0148
     17 C          66.1714   93.6886   13.0740 C.ar    1  UNL1        0.0600
     18 C          66.7545   93.8265   14.4492 C.3     1  UNL1        0.0521
     19 N          65.3378   92.4900   12.7296 N.ar    1  UNL1       -0.2414
     20 O          62.1102   81.4466   13.8018 O.3     1  UNL1       -0.4345
     21 C          63.1481   81.0442   11.4542 C.3     1  UNL1        0.0513
     22 C          62.5599   80.5048   12.7244 C.3     1  UNL1        0.2102
@<TRIPOS>BOND
     1    21    22    1
     2    22    20    1
     3    20     1    1
     4     1     2    2
     5     1     3   am
     6     3     4    1
     7     4     5    1
     8     5     6    1
     9     6     7    1
    10     7     8    2
    11     8    11    1
    12    11    12    3
    13    12    13    1
    14    13    14   ar
    15    14    15   ar
    16    15    16   ar
    17    16    17   ar
    18    17    18    1
    19    17    19   ar
    20     7     9    1
    21     5    10    1
    22    10     3    1
    23     9     5    1
    24    19    13   ar
@<TRIPOS>MOLECULE
*****
 22 24 0 0 0
SMALL
GASTEIGER

@<TRIPOS>ATOM
      1 C          66.1309   94.0575   12.3955 C.2     1  UNL1        0.4049
      2 O          67.0814   93.9357   13.5494 O.2     1  UNL1       -0.2262
      3 N          65.2919   92.8829   11.9877 N.am    1  UNL1       -0.2459
      4 C          64.2649   92.6313   10.9236 C.3     1  UNL1        0.0989
      5 C          64.1053   91.2216   11.4110 C.3     1  UNL1        0.0443
      6 C          63.9457   89.8120   11.8984 C.3     1  UNL1        0.0263
      7 C          62.9188   89.5604   10.8343 C.2     1  UNL1       -0.0358
      8 C          62.0798   88.3858   10.4265 C.2     1  UNL1        0.0411
      9 C          63.0784   90.9701   10.3469 C.3     1  UNL1        0.0263
     10 C          65.1322   91.4732   12.4751 C.3     1  UNL1        0.0989
     11 C          62.1914   87.0893   11.1726 C.1     1  UNL1       -0.0583
     12 C          62.3030   85.7928   11.9188 C.1     1  UNL1       -0.0405
     13 C          62.4146   84.4963   12.6648 C.ar    1  UNL1        0.1224
     14 C          62.3955   84.4901   14.1648 C.ar    1  UNL1        0.0276
     15 C          62.5071   83.1936   14.9109 C.ar    1  UNL1        0.0034
     16 C          62.6377   81.9034   14.1571 C.ar    1  UNL1        0.0148
     17 C          62.6568   81.9096   12.6573 C.ar    1  UNL1        0.0600
     18 C          62.7875   80.6193   11.9035 C.3     1  UNL1        0.0521
     19 N          62.5453   83.2061   11.9111 N.ar    1  UNL1       -0.2414
     20 O          66.0193   95.3540   11.6494 O.3     1  UNL1       -0.4345
     21 C          67.3642   94.4214    9.6316 C.3     1  UNL1        0.0513
     22 C          66.8510   95.5876   10.4232 C.3     1  UNL1        0.2102
@<TRIPOS>BOND
     1    21    22    1
     2    22    20    1
     3    20     1    1
     4     1     2    2
     5     1     3   am
     6     3     4    1
     7     4     5    1
     8     5     6    1
     9     6     7    1
    10     7     8    2
    11     8    11    1
    12    11    12    3
    13    12    13    1
    14    13    14   ar
    15    14    15   ar
    16    15    16   ar
    17    16    17   ar
    18    17    18    1
    19    17    19   ar
    20     7     9    1
    21     5    10    1
    22    10     3    1
    23     9     5    1
    24    19    13   ar
@<TRIPOS>MOLECULE
*****
 22 24 0 0 0
SMALL
GASTEIGER

@<TRIPOS>ATOM
      1 C          62.9754   83.1823   13.5219 C.2     1  UNL1        0.4049
      2 O          63.0762   82.7342   12.0940 O.2     1  UNL1       -0.2262
      3 N          63.3159   84.5960   13.8901 N.am    1  UNL1       -0.2459
      4 C          63.3353   85.3843   15.1662 C.3     1  UNL1        0.0989
      5 C          63.7974   86.5953   14.4110 C.3     1  UNL1        0.0443
      6 C          64.2595   87.8061   13.6557 C.3     1  UNL1        0.0263
      7 C          64.2789   88.5945   14.9318 C.2     1  UNL1       -0.0358
      8 C          64.6194   90.0081   15.3000 C.2     1  UNL1        0.0411
      9 C          63.8168   87.3836   15.6870 C.3     1  UNL1        0.0263
     10 C          63.7780   85.8069   13.1349 C.3     1  UNL1        0.0989
     11 C          65.0607   90.9737   14.2404 C.1     1  UNL1       -0.0583
     12 C          65.5020   91.9393   13.1806 C.1     1  UNL1       -0.0405
     13 C          65.9433   92.9048   12.1210 C.ar    1  UNL1        0.1224
     14 C          66.5137   92.3938   10.8312 C.ar    1  UNL1        0.0276
     15 C          66.9550   93.3593    9.7715 C.ar    1  UNL1        0.0034
     16 C          66.8260   94.8359   10.0016 C.ar    1  UNL1        0.0148
     17 C          66.2556   95.3470   11.2913 C.ar    1  UNL1        0.0600
     18 C          66.1266   96.8236   11.5214 C.3     1  UNL1        0.0521
     19 N          65.8143   94.3814   12.3511 N.ar    1  UNL1       -0.2414
     20 O          62.5341   82.2167   14.5815 O.3     1  UNL1       -0.4345
     21 C          62.0869   79.8997   13.4945 C.3     1  UNL1        0.0513
     22 C          61.5886   81.1047   14.2361 C.3     1  UNL1        0.2102
@<TRIPOS>BOND
     1    21    22    1
     2    22    20    1
     3    20     1    1
     4     1     2    2
     5     1     3   am
     6     3     4    1
     7     4     5    1
     8     5     6    1
     9     6     7    1
    10     7     8    2
    11     8    11    1
    12    11    12    3
    13    12    13    1
    14    13    14   ar
    15    14    15   ar
    16    15    16   ar
    17    16    17   ar
    18    17    18    1
    19    17    19   ar
    20     7     9    1
    21     5    10    1
    22    10     3    1
    23     9     5    1
    24    19    13   ar
@<TRIPOS>MOLECULE
*****
 22 24 0 0 0
SMALL
GASTEIGER

@<TRIPOS>ATOM
      1 C          63.5006   81.4799   13.2551 C.2     1  UNL1        0.4049
      2 O          64.6243   81.1670   14.1983 O.2     1  UNL1       -0.2262
      3 N          63.2401   82.8985   12.8433 N.am    1  UNL1       -0.2459
      4 C          62.2447   83.5780   11.9501 C.3     1  UNL1        0.0989
      5 C          62.8716   84.9049   12.2610 C.3     1  UNL1        0.0443
      6 C          63.4984   86.2317   12.5718 C.3     1  UNL1        0.0263
      7 C          62.5031   86.9111   11.6786 C.2     1  UNL1       -0.0358
      8 C          62.2425   88.3297   11.2668 C.2     1  UNL1        0.0411
      9 C          61.8762   85.5842   11.3678 C.3     1  UNL1        0.0263
     10 C          63.8669   84.2254   13.1542 C.3     1  UNL1        0.0989
     11 C          63.1055   89.4355   11.7982 C.1     1  UNL1       -0.0583
     12 C          63.9686   90.5414   12.3296 C.1     1  UNL1       -0.0405
     13 C          64.8316   91.6471   12.8610 C.ar    1  UNL1        0.1224
     14 C          65.3038   91.6120   14.2843 C.ar    1  UNL1        0.0276
     15 C          66.1669   92.7178   14.8157 C.ar    1  UNL1        0.0034
     16 C          66.5577   93.8587   13.9238 C.ar    1  UNL1        0.0148
     17 C          66.0856   93.8939   12.5005 C.ar    1  UNL1        0.0600
     18 C          66.4765   95.0348   11.6085 C.3     1  UNL1        0.0521
     19 N          65.2225   92.7881   11.9690 N.ar    1  UNL1       -0.2414
     20 O          62.6376   80.3741   12.7238 O.3     1  UNL1       -0.4345
     21 C          60.4932   80.7131   14.1509 C.3     1  UNL1        0.0513
     22 C          61.5389   79.8064   13.5726 C.3     1  UNL1        0.2102
@<TRIPOS>BOND
     1    21    22    1
     2    22    20    1
     3    20     1    1
     4     1     2    2
     5     1     3   am
     6     3     4    1
     7     4     5    1
     8     5     6    1
     9     6     7    1
    10     7     8    2
    11     8    11    1
    12    11    12    3
    13    12    13    1
    14    13    14   ar
    15    14    15   ar
    16    15    16   ar
    17    16    17   ar
    18    17    18    1
    19    17    19   ar
    20     7     9    1
    21     5    10    1
    22    10     3    1
    23     9     5    1
    24    19    13   ar
@<TRIPOS>MOLECULE
*****
 22 24 0 0 0
SMALL
GASTEIGER

@<TRIPOS>ATOM
      1 C          63.8049   94.4011    0.0138 C.2     1  UNL1        0.4049
      2 O          65.2247   93.9377    0.1522 O.2     1  UNL1       -0.2262
      3 N          62.7479   93.8648    0.9332 N.am    1  UNL1       -0.2459
      4 C          61.2727   94.0829    1.0950 C.3     1  UNL1        0.0989
      5 C          61.2531   93.1064    2.2335 C.3     1  UNL1        0.0443
      6 C          61.2337   92.1299    3.3719 C.3     1  UNL1        0.0263
      7 C          59.7584   92.3480    3.5337 C.2     1  UNL1       -0.0358
      8 C          58.7015   91.8117    4.4531 C.2     1  UNL1        0.0411
      9 C          59.7779   93.3245    2.3952 C.3     1  UNL1        0.0263
     10 C          62.7284   92.8883    2.0717 C.3     1  UNL1        0.0989
     11 C          59.0644   90.8121    5.5109 C.1     1  UNL1       -0.0583
     12 C          59.4274   89.8124    6.5688 C.1     1  UNL1       -0.0405
     13 C          59.7904   88.8127    7.6265 C.ar    1  UNL1        0.1224
     14 C          59.4391   87.3659    7.4433 C.ar    1  UNL1        0.0276
     15 C          59.8020   86.3663    8.5011 C.ar    1  UNL1        0.0034
     16 C          60.5162   86.8133    9.7421 C.ar    1  UNL1        0.0148
     17 C          60.8675   88.2600    9.9253 C.ar    1  UNL1        0.0600
     18 C          61.5817   88.7071   11.1663 C.3     1  UNL1        0.0521
     19 N          60.5046   89.2598    8.8675 N.ar    1  UNL1       -0.2414
     20 O          63.4419   95.4007   -1.0440 O.3     1  UNL1       -0.4345
     21 C          62.7858   93.4828   -2.6692 C.3     1  UNL1        0.0513
     22 C          62.8055   94.9422   -2.3225 C.3     1  UNL1        0.2102
@<TRIPOS>BOND
     1    21    22    1
     2    22    20    1
     3    20     1    1
     4     1     2    2
     5     1     3   am
     6     3     4    1
     7     4     5    1
     8     5     6    1
     9     6     7    1
    10     7     8    2
    11     8    11    1
    12    11    12    3
    13    12    13    1
    14    13    14   ar
    15    14    15   ar
    16    15    16   ar
    17    16    17   ar
    18    17    18    1
    19    17    19   ar
    20     7     9    1
    21     5    10    1
    22    10     3    1
    23     9     5    1
    24    19    13   ar
@<TRIPOS>MOLECULE
*****
 22 24 0 0 0
SMALL
GASTEIGER

@<TRIPOS>ATOM
      1 C          62.4963   94.1275    0.9278 C.2     1  UNL1        0.4049
      2 O          63.9798   93.9148    0.8650 O.2     1  UNL1       -0.2262
      3 N          61.6760   93.3939    1.9471 N.am    1  UNL1       -0.2459
      4 C          60.2195   93.3484    2.3031 C.3     1  UNL1        0.0989
      5 C          60.5159   92.3565    3.3887 C.3     1  UNL1        0.0443
      6 C          60.8123   91.3648    4.4743 C.3     1  UNL1        0.0263
      7 C          59.3558   91.3192    4.8302 C.2     1  UNL1       -0.0358
      8 C          58.5354   90.5857    5.8496 C.2     1  UNL1        0.0411
      9 C          59.0594   92.3110    3.7446 C.3     1  UNL1        0.0263
     10 C          61.9724   92.4021    3.0328 C.3     1  UNL1        0.0989
     11 C          59.1986   89.6395    6.8061 C.1     1  UNL1       -0.0583
     12 C          59.8618   88.6933    7.7626 C.1     1  UNL1       -0.0405
     13 C          60.5249   87.7471    8.7191 C.ar    1  UNL1        0.1224
     14 C          60.1703   87.7825   10.1762 C.ar    1  UNL1        0.0276
     15 C          60.8334   86.8363   11.1327 C.ar    1  UNL1        0.0034
     16 C          61.8513   85.8547   10.6322 C.ar    1  UNL1        0.0148
     17 C          62.2059   85.8193    9.1752 C.ar    1  UNL1        0.0600
     18 C          63.2238   84.8377    8.6747 C.3     1  UNL1        0.0521
     19 N          61.5428   86.7655    8.2186 N.ar    1  UNL1       -0.2414
     20 O          61.8332   95.0736   -0.0287 O.3     1  UNL1       -0.4345
     21 C          61.8325   93.2329   -1.8622 C.3     1  UNL1        0.0513
     22 C          61.4321   94.6008   -1.3945 C.3     1  UNL1        0.2102
@<TRIPOS>BOND
     1    21    22    1
     2    22    20    1
     3    20     1    1
     4     1     2    2
     5     1     3   am
     6     3     4    1
     7     4     5    1
     8     5     6    1
     9     6     7    1
    10     7     8    2
    11     8    11    1
    12    11    12    3
    13    12    13    1
    14    13    14   ar
    15    14    15   ar
    16    15    16   ar
    17    16    17   ar
    18    17    18    1
    19    17    19   ar
    20     7     9    1
    21     5    10    1
    22    10     3    1
    23     9     5    1
    24    19    13   ar
@<TRIPOS>MOLECULE
*****
 22 24 0 0 0
SMALL
GASTEIGER

@<TRIPOS>ATOM
      1 C          65.9087   93.8965   11.7004 C.2     1  UNL1        0.4049
      2 O          66.1324   93.7313   10.2265 O.2     1  UNL1       -0.2262
      3 N          65.5065   92.7167   12.5349 N.am    1  UNL1       -0.2459
      4 C          65.2036   92.4989   13.9878 C.3     1  UNL1        0.0989
      5 C          64.9376   91.0481   13.7149 C.3     1  UNL1        0.0443
      6 C          64.6716   89.5973   13.4420 C.3     1  UNL1        0.0263
      7 C          64.3687   89.3796   14.8950 C.2     1  UNL1       -0.0358
      8 C          63.9664   88.1998   15.7294 C.2     1  UNL1        0.0411
      9 C          64.6347   90.8305   15.1678 C.3     1  UNL1        0.0263
     10 C          65.2405   91.2658   12.2620 C.3     1  UNL1        0.0989
     11 C          63.7879   86.8548   15.0898 C.1     1  UNL1       -0.0583
     12 C          63.6094   85.5097   14.4503 C.1     1  UNL1       -0.0405
     13 C          63.4309   84.1647   13.8107 C.ar    1  UNL1        0.1224
     14 C          64.3343   83.7409   12.6907 C.ar    1  UNL1        0.0276
     15 C          64.1557   82.3959   12.0512 C.ar    1  UNL1        0.0034
     16 C          63.0738   81.4747   12.5315 C.ar    1  UNL1        0.0148
     17 C          62.1704   81.8984   13.6514 C.ar    1  UNL1        0.0600
     18 C          61.0885   80.9772   14.1318 C.3     1  UNL1        0.0521
     19 N          62.3489   83.2435   14.2911 N.ar    1  UNL1       -0.2414
     20 O          66.0872   95.2415   12.3400 O.3     1  UNL1       -0.4345
     21 C          65.0327   96.8557   10.5987 C.3     1  UNL1        0.0513
     22 C          66.1791   96.4716   11.4865 C.3     1  UNL1        0.2102
@<TRIPOS>BOND
     1    21    22    1
     2    22    20    1
     3    20     1    1
     4     1     2    2
     5     1     3   am
     6     3     4    1
     7     4     5    1
     8     5     6    1
     9     6     7    1
    10     7     8    2
    11     8    11    1
    12    11    12    3
    13    12    13    1
    14    13    14   ar
    15    14    15   ar
    16    15    16   ar
    17    16    17   ar
    18    17    18    1
    19    17    19   ar
    20     7     9    1
    21     5    10    1
    22    10     3    1
    23     9     5    1
    24    19    13   ar
