@<TRIPOS>MOLECULE
*****
 28 31 0 0 0
SMALL
GASTEIGER

@<TRIPOS>ATOM
      1 C          62.9525   85.3150   11.9375 C.2     1  UNL1       -0.0246
      2 C          63.4858   86.0615   13.1242 C.2     1  UNL1       -0.0421
      3 C          63.8217   85.0600   14.1891 C.3     1  UNL1        0.0480
      4 C          63.4961   83.6945   13.6606 C.ar    1  UNL1       -0.0184
      5 C          63.6193   82.3280   14.2667 C.ar    1  UNL1       -0.0040
      6 C          63.2053   81.1190   13.4812 C.ar    1  UNL1       -0.0003
      7 C          62.6681   81.2766   12.0896 C.ar    1  UNL1       -0.0000
      8 C          62.5448   82.6432   11.4835 C.ar    1  UNL1       -0.0006
      9 C          62.9588   83.8521   12.2690 C.ar    1  UNL1       -0.0079
     10 C          62.8068   85.2478    9.3443 C.3     1  UNL1        0.0111
     11 C          62.4935   85.9243   10.6460 C.3     1  UNL1        0.0634
     12 C          61.7211   87.2101   10.6561 C.ar    1  UNL1        0.0818
     13 C          62.1614   88.3563    9.7945 C.ar    1  UNL1        0.1139
     14 N          61.3889   89.6421    9.8046 N.ar    1  UNL1       -0.2394
     15 C          60.1763   89.7817   10.6762 C.ar    1  UNL1        0.1195
     16 C          59.7359   88.6355   11.5379 C.ar    1  UNL1        0.1191
     17 N          60.5083   87.3498   11.5278 N.ar    1  UNL1       -0.2446
     18 C          63.6537   87.5485   13.2278 C.3     1  UNL1        0.0394
     19 C          64.2649   88.1503   14.4583 C.3     1  UNL1        0.0768
     20 N          63.6745   89.3918   15.0586 N.3     1  UNL1       -0.2674
     21 C          63.1685   89.3746   16.4706 C.3     1  UNL1        0.0899
     22 C          63.5902   90.6504   14.2469 C.3     1  UNL1        0.0993
     23 C          64.8411   91.2858   13.7163 C.ar    1  UNL1       -0.0031
     24 C          64.8376   91.9331   12.3632 C.ar    1  UNL1        0.0178
     25 C          66.0884   92.5686   11.8325 C.ar    1  UNL1        0.0986
     26 N          67.3428   92.5567   12.6550 N.ar    1  UNL1       -0.2423
     27 C          67.3462   91.9094   14.0081 C.ar    1  UNL1        0.0986
     28 C          66.0954   91.2740   14.5387 C.ar    1  UNL1        0.0178
@<TRIPOS>BOND
     1    11    10    1
     2    11     1    1
     3     1     2    2
     4     2    18    1
     5    18    19    1
     6    19    20    1
     7    20    21    1
     8    20    22    1
     9    22    23    1
    10    23    24   ar
    11    24    25   ar
    12    25    26   ar
    13    26    27   ar
    14    27    28   ar
    15     2     3    1
    16     3     4    1
    17     4     5   ar
    18     5     6   ar
    19     6     7   ar
    20     7     8   ar
    21     8     9   ar
    22    11    12    1
    23    12    13   ar
    24    13    14   ar
    25    14    15   ar
    26    15    16   ar
    27    16    17   ar
    28     9     1    1
    29    17    12   ar
    30    28    23   ar
    31     9     4   ar
@<TRIPOS>MOLECULE
*****
 28 31 0 0 0
SMALL
GASTEIGER

@<TRIPOS>ATOM
      1 C          63.6992   89.0027   13.5332 C.2     1  UNL1       -0.0246
      2 C          63.9445   87.5349   13.7208 C.2     1  UNL1       -0.0421
      3 C          63.3295   86.8101   12.5605 C.3     1  UNL1        0.0480
      4 C          62.7040   87.8301   11.6557 C.ar    1  UNL1       -0.0184
      5 C          61.9559   87.6999   10.3621 C.ar    1  UNL1       -0.0040
      6 C          61.4364   88.9249    9.6698 C.ar    1  UNL1       -0.0003
      7 C          61.6649   90.2800   10.2709 C.ar    1  UNL1       -0.0000
      8 C          62.4129   90.4101   11.5645 C.ar    1  UNL1       -0.0006
      9 C          62.9325   89.1852   12.2569 C.ar    1  UNL1       -0.0079
     10 C          63.5781   90.1791   15.8466 C.3     1  UNL1        0.0111
     11 C          64.1427   90.0962   14.4593 C.3     1  UNL1        0.0634
     12 C          65.1506   91.1068   13.9982 C.ar    1  UNL1        0.0818
     13 C          66.5446   91.0823   14.5516 C.ar    1  UNL1        0.1139
     14 N          67.5525   92.0929   14.0904 N.ar    1  UNL1       -0.2394
     15 C          67.1665   93.1282   13.0759 C.ar    1  UNL1        0.1195
     16 C          65.7725   93.1528   12.5225 C.ar    1  UNL1        0.1191
     17 N          64.7646   92.1421   12.9837 N.ar    1  UNL1       -0.2446
     18 C          64.6764   86.9028   14.8675 C.3     1  UNL1        0.0394
     19 C          63.9606   85.9539   15.7824 C.3     1  UNL1        0.0768
     20 N          63.4550   84.6431   15.2570 N.3     1  UNL1       -0.2674
     21 C          61.9967   84.3065   15.3590 C.3     1  UNL1        0.0899
     22 C          64.4075   83.6689   14.6296 C.3     1  UNL1        0.0993
     23 C          63.9813   82.8657   13.4366 C.ar    1  UNL1       -0.0031
     24 C          63.3233   81.5313   13.6271 C.ar    1  UNL1        0.0178
     25 C          62.8971   80.7281   12.4341 C.ar    1  UNL1        0.0986
     26 N          63.1289   81.2593   11.0507 N.ar    1  UNL1       -0.2423
     27 C          63.7869   82.5937   10.8602 C.ar    1  UNL1        0.0986
     28 C          64.2131   83.3969   12.0532 C.ar    1  UNL1        0.0178
@<TRIPOS>BOND
     1    11    10    1
     2    11     1    1
     3     1     2    2
     4     2    18    1
     5    18    19    1
     6    19    20    1
     7    20    21    1
     8    20    22    1
     9    22    23    1
    10    23    24   ar
    11    24    25   ar
    12    25    26   ar
    13    26    27   ar
    14    27    28   ar
    15     2     3    1
    16     3     4    1
    17     4     5   ar
    18     5     6   ar
    19     6     7   ar
    20     7     8   ar
    21     8     9   ar
    22    11    12    1
    23    12    13   ar
    24    13    14   ar
    25    14    15   ar
    26    15    16   ar
    27    16    17   ar
    28     9     1    1
    29    17    12   ar
    30    28    23   ar
    31     9     4   ar
@<TRIPOS>MOLECULE
*****
 28 31 0 0 0
SMALL
GASTEIGER

@<TRIPOS>ATOM
      1 C          63.7834   90.4582   13.8529 C.2     1  UNL1       -0.0246
      2 C          62.8129   90.2559   12.7272 C.2     1  UNL1       -0.0421
      3 C          63.3369   90.9865   11.5266 C.3     1  UNL1        0.0480
      4 C          64.6313   91.6403   11.9102 C.ar    1  UNL1       -0.0184
      5 C          65.5944   92.4907   11.1360 C.ar    1  UNL1       -0.0040
      6 C          66.8333   93.0145   11.7997 C.ar    1  UNL1       -0.0003
      7 C          67.1093   92.6880   13.2375 C.ar    1  UNL1       -0.0000
      8 C          66.1462   91.8376   14.0116 C.ar    1  UNL1       -0.0006
      9 C          64.9073   91.3137   13.3479 C.ar    1  UNL1       -0.0079
     10 C          63.5148   90.8309   16.4101 C.3     1  UNL1        0.0111
     11 C          63.6530   89.9024   15.2400 C.3     1  UNL1        0.0634
     12 C          63.6607   88.4183   15.4572 C.ar    1  UNL1        0.0818
     13 C          63.1006   87.8427   16.7241 C.ar    1  UNL1        0.1139
     14 N          63.1084   86.3585   16.9412 N.ar    1  UNL1       -0.2394
     15 C          63.6763   85.4499   15.8915 C.ar    1  UNL1        0.1195
     16 C          64.2365   86.0254   14.6246 C.ar    1  UNL1        0.1191
     17 N          64.2287   87.5096   14.4075 N.ar    1  UNL1       -0.2446
     18 C          61.5415   89.4625   12.7910 C.3     1  UNL1        0.0394
     19 C          60.4480   89.7168   11.7963 C.3     1  UNL1        0.0768
     20 N          60.4378   88.9822   10.4886 N.3     1  UNL1       -0.2674
     21 C          60.7501   89.7121    9.2158 C.3     1  UNL1        0.0899
     22 C          60.1155   87.5176   10.4536 C.3     1  UNL1        0.0993
     23 C          61.2092   86.5139   10.2385 C.ar    1  UNL1       -0.0031
     24 C          61.7653   86.2938    8.8629 C.ar    1  UNL1        0.0178
     25 C          62.8591   85.2900    8.6478 C.ar    1  UNL1        0.0986
     26 N          63.3967   84.5064    9.8083 N.ar    1  UNL1       -0.2423
     27 C          62.8406   84.7265   11.1839 C.ar    1  UNL1        0.0986
     28 C          61.7469   85.7302   11.3990 C.ar    1  UNL1        0.0178
@<TRIPOS>BOND
     1    11    10    1
     2    11     1    1
     3     1     2    2
     4     2    18    1
     5    18    19    1
     6    19    20    1
     7    20    21    1
     8    20    22    1
     9    22    23    1
    10    23    24   ar
    11    24    25   ar
    12    25    26   ar
    13    26    27   ar
    14    27    28   ar
    15     2     3    1
    16     3     4    1
    17     4     5   ar
    18     5     6   ar
    19     6     7   ar
    20     7     8   ar
    21     8     9   ar
    22    11    12    1
    23    12    13   ar
    24    13    14   ar
    25    14    15   ar
    26    15    16   ar
    27    16    17   ar
    28     9     1    1
    29    17    12   ar
    30    28    23   ar
    31     9     4   ar
@<TRIPOS>MOLECULE
*****
 28 31 0 0 0
SMALL
GASTEIGER

@<TRIPOS>ATOM
      1 C          61.4558   88.2128   10.7851 C.2     1  UNL1       -0.0246
      2 C          62.2489   86.9938   11.1522 C.2     1  UNL1       -0.0421
      3 C          62.0108   85.9517   10.0999 C.3     1  UNL1        0.0480
      4 C          61.0706   86.5266    9.0824 C.ar    1  UNL1       -0.0184
      5 C          60.4824   85.9582    7.8251 C.ar    1  UNL1       -0.0040
      6 C          59.5512   86.7873    6.9912 C.ar    1  UNL1       -0.0003
      7 C          59.2081   88.1848    7.4147 C.ar    1  UNL1       -0.0000
      8 C          59.7963   88.7532    8.6720 C.ar    1  UNL1       -0.0006
      9 C          60.7275   87.9241    9.5059 C.ar    1  UNL1       -0.0079
     10 C          60.1254   89.9113   12.2327 C.3     1  UNL1        0.0111
     11 C          61.4005   89.4954   11.5609 C.3     1  UNL1        0.0634
     12 C          62.6202   90.3621   11.6650 C.ar    1  UNL1        0.0818
     13 C          63.1292   91.0892   10.4557 C.ar    1  UNL1        0.1139
     14 N          64.3490   91.9559   10.5599 N.ar    1  UNL1       -0.2394
     15 C          65.0599   92.0956   11.8733 C.ar    1  UNL1        0.1195
     16 C          64.5510   91.3686   13.0827 C.ar    1  UNL1        0.1191
     17 N          63.3312   90.5018   12.9785 N.ar    1  UNL1       -0.2446
     18 C          63.1261   86.8432   12.3596 C.3     1  UNL1        0.0394
     19 C          62.9978   85.6309   13.2335 C.3     1  UNL1        0.0768
     20 N          64.1547   85.1915   14.0812 N.3     1  UNL1       -0.2674
     21 C          64.7215   86.1186   15.1153 C.3     1  UNL1        0.0899
     22 C          64.7447   83.8251   13.8948 C.3     1  UNL1        0.0993
     23 C          64.2060   82.9142   12.8317 C.ar    1  UNL1       -0.0031
     24 C          64.5326   83.1685   11.3900 C.ar    1  UNL1        0.0178
     25 C          63.9940   82.2576   10.3270 C.ar    1  UNL1        0.0986
     26 N          63.1287   81.0923   10.7056 N.ar    1  UNL1       -0.2423
     27 C          62.8021   80.8380   12.1473 C.ar    1  UNL1        0.0986
     28 C          63.3408   81.7489   13.2104 C.ar    1  UNL1        0.0178
@<TRIPOS>BOND
     1    11    10    1
     2    11     1    1
     3     1     2    2
     4     2    18    1
     5    18    19    1
     6    19    20    1
     7    20    21    1
     8    20    22    1
     9    22    23    1
    10    23    24   ar
    11    24    25   ar
    12    25    26   ar
    13    26    27   ar
    14    27    28   ar
    15     2     3    1
    16     3     4    1
    17     4     5   ar
    18     5     6   ar
    19     6     7   ar
    20     7     8   ar
    21     8     9   ar
    22    11    12    1
    23    12    13   ar
    24    13    14   ar
    25    14    15   ar
    26    15    16   ar
    27    16    17   ar
    28     9     1    1
    29    17    12   ar
    30    28    23   ar
    31     9     4   ar
@<TRIPOS>MOLECULE
*****
 28 31 0 0 0
SMALL
GASTEIGER

@<TRIPOS>ATOM
      1 C          63.3545   87.3986   12.8284 C.2     1  UNL1       -0.0246
      2 C          63.5054   88.8904   12.7854 C.2     1  UNL1       -0.0421
      3 C          62.8153   89.3906   11.5511 C.3     1  UNL1        0.0480
      4 C          62.2379   88.2080   10.8313 C.ar    1  UNL1       -0.0184
      5 C          61.4518   88.0932    9.5589 C.ar    1  UNL1       -0.0040
      6 C          60.9990   86.7472    9.0761 C.ar    1  UNL1       -0.0003
      7 C          61.3322   85.5161    9.8655 C.ar    1  UNL1       -0.0000
      8 C          62.1183   85.6309   11.1378 C.ar    1  UNL1       -0.0006
      9 C          62.5712   86.9769   11.6207 C.ar    1  UNL1       -0.0079
     10 C          64.7296   87.0472   15.0046 C.3     1  UNL1        0.0111
     11 C          63.8925   86.4883   13.8924 C.3     1  UNL1        0.0634
     12 C          63.5934   85.0193   13.8442 C.ar    1  UNL1        0.0818
     13 C          64.5125   84.0905   13.1077 C.ar    1  UNL1        0.1139
     14 N          64.2133   82.6214   13.0596 N.ar    1  UNL1       -0.2394
     15 C          62.9950   82.0811   13.7479 C.ar    1  UNL1        0.1195
     16 C          62.0758   83.0099   14.4844 C.ar    1  UNL1        0.1191
     17 N          62.3750   84.4790   14.5325 N.ar    1  UNL1       -0.2446
     18 C          64.2207   89.7338   13.7988 C.3     1  UNL1        0.0394
     19 C          64.0700   91.2260   13.7734 C.3     1  UNL1        0.0768
     20 N          65.0920   92.0712   13.0726 N.3     1  UNL1       -0.2674
     21 C          66.2193   92.6837   13.8499 C.3     1  UNL1        0.0899
     22 C          64.9866   92.3040   11.5946 C.3     1  UNL1        0.0993
     23 C          66.0789   93.0339   10.8706 C.ar    1  UNL1       -0.0031
     24 C          65.9926   94.5197   10.6843 C.ar    1  UNL1        0.0178
     25 C          67.0849   95.2496    9.9603 C.ar    1  UNL1        0.0986
     26 N          68.2635   94.4937    9.4226 N.ar    1  UNL1       -0.2423
     27 C          68.3499   93.0078    9.6089 C.ar    1  UNL1        0.0986
     28 C          67.2576   92.2779   10.3328 C.ar    1  UNL1        0.0178
@<TRIPOS>BOND
     1    11    10    1
     2    11     1    1
     3     1     2    2
     4     2    18    1
     5    18    19    1
     6    19    20    1
     7    20    21    1
     8    20    22    1
     9    22    23    1
    10    23    24   ar
    11    24    25   ar
    12    25    26   ar
    13    26    27   ar
    14    27    28   ar
    15     2     3    1
    16     3     4    1
    17     4     5   ar
    18     5     6   ar
    19     6     7   ar
    20     7     8   ar
    21     8     9   ar
    22    11    12    1
    23    12    13   ar
    24    13    14   ar
    25    14    15   ar
    26    15    16   ar
    27    16    17   ar
    28     9     1    1
    29    17    12   ar
    30    28    23   ar
    31     9     4   ar
@<TRIPOS>MOLECULE
*****
 28 31 0 0 0
SMALL
GASTEIGER

@<TRIPOS>ATOM
      1 C          62.1134   86.3056   10.3601 C.2     1  UNL1       -0.0246
      2 C          62.3746   87.5419   11.1686 C.2     1  UNL1       -0.0421
      3 C          61.5117   88.6419   10.6251 C.3     1  UNL1        0.0480
      4 C          60.7172   88.0855    9.4809 C.ar    1  UNL1       -0.0184
      5 C          59.7032   88.7071    8.5669 C.ar    1  UNL1       -0.0040
      6 C          59.0611   87.8849    7.4892 C.ar    1  UNL1       -0.0003
      7 C          59.4331   86.4410    7.3254 C.ar    1  UNL1       -0.0000
      8 C          60.4471   85.8193    8.2394 C.ar    1  UNL1       -0.0006
      9 C          61.0891   86.6416    9.3171 C.ar    1  UNL1       -0.0079
     10 C          63.5643   84.3509    9.4522 C.3     1  UNL1        0.0111
     11 C          62.7626   84.9682   10.5597 C.3     1  UNL1        0.0634
     12 C          62.6103   84.2480   11.8666 C.ar    1  UNL1        0.0818
     13 C          62.6260   82.7486   11.9030 C.ar    1  UNL1        0.1139
     14 N          62.4737   82.0284   13.2099 N.ar    1  UNL1       -0.2394
     15 C          62.3056   82.8077   14.4805 C.ar    1  UNL1        0.1195
     16 C          62.2899   84.3072   14.4442 C.ar    1  UNL1        0.1191
     17 N          62.4422   85.0273   13.1372 N.ar    1  UNL1       -0.2446
     18 C          63.3308   87.6577   12.3185 C.3     1  UNL1        0.0394
     19 C          63.5490   88.9853   12.9816 C.3     1  UNL1        0.0768
     20 N          64.0317   89.0446   14.4006 N.3     1  UNL1       -0.2674
     21 C          64.1403   87.7857   15.2090 C.3     1  UNL1        0.0899
     22 C          64.4056   90.3627   15.0111 C.3     1  UNL1        0.0993
     23 C          65.4132   91.2439   14.3342 C.ar    1  UNL1       -0.0031
     24 C          65.0485   91.9685   13.0726 C.ar    1  UNL1        0.0178
     25 C          66.0561   92.8497   12.3957 C.ar    1  UNL1        0.0986
     26 N          67.4285   93.0062   12.9804 N.ar    1  UNL1       -0.2423
     27 C          67.7933   92.2816   14.2421 C.ar    1  UNL1        0.0986
     28 C          66.7856   91.4004   14.9190 C.ar    1  UNL1        0.0178
@<TRIPOS>BOND
     1    11    10    1
     2    11     1    1
     3     1     2    2
     4     2    18    1
     5    18    19    1
     6    19    20    1
     7    20    21    1
     8    20    22    1
     9    22    23    1
    10    23    24   ar
    11    24    25   ar
    12    25    26   ar
    13    26    27   ar
    14    27    28   ar
    15     2     3    1
    16     3     4    1
    17     4     5   ar
    18     5     6   ar
    19     6     7   ar
    20     7     8   ar
    21     8     9   ar
    22    11    12    1
    23    12    13   ar
    24    13    14   ar
    25    14    15   ar
    26    15    16   ar
    27    16    17   ar
    28     9     1    1
    29    17    12   ar
    30    28    23   ar
    31     9     4   ar
@<TRIPOS>MOLECULE
*****
 28 31 0 0 0
SMALL
GASTEIGER

@<TRIPOS>ATOM
      1 C          64.2896   90.4763   14.3553 C.2     1  UNL1       -0.0246
      2 C          63.6721   90.5671   12.9913 C.2     1  UNL1       -0.0421
      3 C          64.5689   91.4076   12.1316 C.3     1  UNL1        0.0480
      4 C          65.7406   91.8363   12.9642 C.ar    1  UNL1       -0.0184
      5 C          66.9425   92.6764   12.6484 C.ar    1  UNL1       -0.0040
      6 C          67.9717   92.9410   13.7070 C.ar    1  UNL1       -0.0003
      7 C          67.7990   92.3655   15.0814 C.ar    1  UNL1       -0.0000
      8 C          66.5972   91.5253   15.3972 C.ar    1  UNL1       -0.0006
      9 C          65.5680   91.2608   14.3385 C.ar    1  UNL1       -0.0079
     10 C          63.1365   90.4870   16.6836 C.3     1  UNL1        0.0111
     11 C          63.7273   89.7319   15.5299 C.3     1  UNL1        0.0634
     12 C          63.7559   88.2324   15.5510 C.ar    1  UNL1        0.0818
     13 C          64.4298   87.4793   14.4425 C.ar    1  UNL1        0.1139
     14 N          64.4583   85.9797   14.4636 N.ar    1  UNL1       -0.2394
     15 C          63.8129   85.2331   15.5932 C.ar    1  UNL1        0.1195
     16 C          63.1390   85.9861   16.7018 C.ar    1  UNL1        0.1191
     17 N          63.1105   87.4857   16.6807 N.ar    1  UNL1       -0.2446
     18 C          62.3840   89.9292   12.5624 C.3     1  UNL1        0.0394
     19 C          62.3988   88.7969   11.5788 C.3     1  UNL1        0.0768
     20 N          61.1593   87.9825   11.3539 N.3     1  UNL1       -0.2674
     21 C          59.8104   88.6349   11.4235 C.3     1  UNL1        0.0899
     22 C          61.2688   86.5158   11.0594 C.3     1  UNL1        0.0993
     23 C          61.4157   86.0441    9.6431 C.ar    1  UNL1       -0.0031
     24 C          62.7008   85.4163    9.1911 C.ar    1  UNL1        0.0178
     25 C          62.8476   84.9446    7.7748 C.ar    1  UNL1        0.0986
     26 N          61.7093   85.1007    6.8105 N.ar    1  UNL1       -0.2423
     27 C          60.4242   85.7285    7.2625 C.ar    1  UNL1        0.0986
     28 C          60.2774   86.2002    8.6788 C.ar    1  UNL1        0.0178
@<TRIPOS>BOND
     1    11    10    1
     2    11     1    1
     3     1     2    2
     4     2    18    1
     5    18    19    1
     6    19    20    1
     7    20    21    1
     8    20    22    1
     9    22    23    1
    10    23    24   ar
    11    24    25   ar
    12    25    26   ar
    13    26    27   ar
    14    27    28   ar
    15     2     3    1
    16     3     4    1
    17     4     5   ar
    18     5     6   ar
    19     6     7   ar
    20     7     8   ar
    21     8     9   ar
    22    11    12    1
    23    12    13   ar
    24    13    14   ar
    25    14    15   ar
    26    15    16   ar
    27    16    17   ar
    28     9     1    1
    29    17    12   ar
    30    28    23   ar
    31     9     4   ar
@<TRIPOS>MOLECULE
*****
 28 31 0 0 0
SMALL
GASTEIGER

@<TRIPOS>ATOM
      1 C          63.1972   88.5606   12.3064 C.2     1  UNL1       -0.0246
      2 C          63.8178   89.4075   13.3776 C.2     1  UNL1       -0.0421
      3 C          64.3182   88.4952   14.4580 C.3     1  UNL1        0.0480
      4 C          64.0069   87.0844   14.0545 C.ar    1  UNL1       -0.0184
      5 C          64.2647   85.7682   14.7261 C.ar    1  UNL1       -0.0040
      6 C          63.8298   84.4925   14.0680 C.ar    1  UNL1       -0.0003
      7 C          63.1370   84.5329   12.7381 C.ar    1  UNL1       -0.0000
      8 C          62.8791   85.8491   12.0665 C.ar    1  UNL1       -0.0006
      9 C          63.3141   87.1248   12.7247 C.ar    1  UNL1       -0.0079
     10 C          62.7433   90.4947   10.6320 C.3     1  UNL1        0.0111
     11 C          62.5699   89.0614   11.0392 C.3     1  UNL1        0.0634
     12 C          61.7692   88.1292   10.1792 C.ar    1  UNL1        0.0818
     13 C          60.2716   88.2130   10.1745 C.ar    1  UNL1        0.1139
     14 N          59.4709   87.2807    9.3144 N.ar    1  UNL1       -0.2394
     15 C          60.1678   86.2645    8.4591 C.ar    1  UNL1        0.1195
     16 C          61.6655   86.1805    8.4638 C.ar    1  UNL1        0.1191
     17 N          62.4662   87.1129    9.3239 N.ar    1  UNL1       -0.2446
     18 C          63.9200   90.9040   13.3698 C.3     1  UNL1        0.0394
     19 C          65.1736   91.5726   13.8510 C.3     1  UNL1        0.0768
     20 N          66.2003   92.0412   12.8630 N.3     1  UNL1       -0.2674
     21 C          67.6399   92.1477   13.2709 C.3     1  UNL1        0.0899
     22 C          65.7876   92.4033   11.4671 C.3     1  UNL1        0.0993
     23 C          66.3564   93.6260   10.8102 C.ar    1  UNL1       -0.0031
     24 C          67.2615   93.4867    9.6222 C.ar    1  UNL1        0.0178
     25 C          67.8302   94.7094    8.9652 C.ar    1  UNL1        0.0986
     26 N          67.4939   96.0713    9.4963 N.ar    1  UNL1       -0.2423
     27 C          66.5888   96.2106   10.6842 C.ar    1  UNL1        0.0986
     28 C          66.0200   94.9879   11.3412 C.ar    1  UNL1        0.0178
@<TRIPOS>BOND
     1    11    10    1
     2    11     1    1
     3     1     2    2
     4     2    18    1
     5    18    19    1
     6    19    20    1
     7    20    21    1
     8    20    22    1
     9    22    23    1
    10    23    24   ar
    11    24    25   ar
    12    25    26   ar
    13    26    27   ar
    14    27    28   ar
    15     2     3    1
    16     3     4    1
    17     4     5   ar
    18     5     6   ar
    19     6     7   ar
    20     7     8   ar
    21     8     9   ar
    22    11    12    1
    23    12    13   ar
    24    13    14   ar
    25    14    15   ar
    26    15    16   ar
    27    16    17   ar
    28     9     1    1
    29    17    12   ar
    30    28    23   ar
    31     9     4   ar
@<TRIPOS>MOLECULE
*****
 28 31 0 0 0
SMALL
GASTEIGER

@<TRIPOS>ATOM
      1 C          63.4919   87.3671   13.0564 C.2     1  UNL1       -0.0246
      2 C          63.7332   88.8474   13.0355 C.2     1  UNL1       -0.0421
      3 C          63.0824   89.4058   11.8047 C.3     1  UNL1        0.0480
      4 C          62.4388   88.2705   11.0650 C.ar    1  UNL1       -0.0184
      5 C          61.6551   88.2214    9.7871 C.ar    1  UNL1       -0.0040
      6 C          61.1245   86.9122    9.2826 C.ar    1  UNL1       -0.0003
      7 C          61.3776   85.6522   10.0562 C.ar    1  UNL1       -0.0000
      8 C          62.1613   85.7014   11.3342 C.ar    1  UNL1       -0.0006
      9 C          62.6920   87.0106   11.8386 C.ar    1  UNL1       -0.0079
     10 C          64.9385   85.3249   13.7542 C.3     1  UNL1        0.0111
     11 C          63.9671   86.4112   14.1101 C.3     1  UNL1        0.0634
     12 C          63.4710   86.5413   15.5196 C.ar    1  UNL1        0.0818
     13 C          62.9637   85.3338   16.2507 C.ar    1  UNL1        0.1139
     14 N          62.4676   85.4640   17.6603 N.ar    1  UNL1       -0.2394
     15 C          62.4788   86.8017   18.3388 C.ar    1  UNL1        0.1195
     16 C          62.9862   88.0092   17.6078 C.ar    1  UNL1        0.1191
     17 N          63.4823   87.8790   16.1982 N.ar    1  UNL1       -0.2446
     18 C          64.4921   89.6317   14.0645 C.3     1  UNL1        0.0394
     19 C          64.4958   91.1308   14.0125 C.3     1  UNL1        0.0768
     20 N          65.5236   91.8501   13.1902 N.3     1  UNL1       -0.2674
     21 C          66.9093   92.0500   13.7288 C.3     1  UNL1        0.0899
     22 C          65.1657   92.3696   11.8293 C.3     1  UNL1        0.0993
     23 C          66.1952   93.0836   11.0045 C.ar    1  UNL1       -0.0031
     24 C          67.2857   92.3063   10.3288 C.ar    1  UNL1        0.0178
     25 C          68.3152   93.0203    9.5039 C.ar    1  UNL1        0.0986
     26 N          68.2542   94.5116    9.3548 N.ar    1  UNL1       -0.2423
     27 C          67.1637   95.2889   10.0305 C.ar    1  UNL1        0.0986
     28 C          66.1342   94.5749   10.8553 C.ar    1  UNL1        0.0178
@<TRIPOS>BOND
     1    11    10    1
     2    11     1    1
     3     1     2    2
     4     2    18    1
     5    18    19    1
     6    19    20    1
     7    20    21    1
     8    20    22    1
     9    22    23    1
    10    23    24   ar
    11    24    25   ar
    12    25    26   ar
    13    26    27   ar
    14    27    28   ar
    15     2     3    1
    16     3     4    1
    17     4     5   ar
    18     5     6   ar
    19     6     7   ar
    20     7     8   ar
    21     8     9   ar
    22    11    12    1
    23    12    13   ar
    24    13    14   ar
    25    14    15   ar
    26    15    16   ar
    27    16    17   ar
    28     9     1    1
    29    17    12   ar
    30    28    23   ar
    31     9     4   ar
