@<TRIPOS>MOLECULE
*****
 36 37 0 0 0
SMALL
GASTEIGER

@<TRIPOS>ATOM
      1 C          63.8416   91.3919   12.7735 C.3     1  UNL1        0.1496
      2 N          60.5567   89.5598   11.5074 N.am    1  UNL1       -0.2567
      3 C          59.7054   90.7348   11.1272 C.3     1  UNL1        0.1168
      4 C          61.9354   89.7789   12.0562 C.2     1  UNL1        0.3046
      5 O          62.7867   88.6038   12.4363 O.2     1  UNL1       -0.2526
      6 N          62.4628   91.1728   12.2247 N.am    1  UNL1       -0.2824
      7 H          61.9041   91.9440   11.9752 H       1  UNL1        0.1514
      8 C          60.0293   88.1658   11.3388 C.3     1  UNL1        0.1413
      9 C          61.4653   85.9417    8.5003 C.ar    1  UNL1        0.0875
     10 N          61.5532   86.5245    9.8797 N.ar    1  UNL1       -0.2453
     11 C          60.3465   87.3891   10.0954 C.ar    1  UNL1        0.0858
     12 C          59.5128   87.3406    8.8494 C.ar    1  UNL1        0.0530
     13 S          60.2043   86.4461    7.8636 S.2     1  UNL1       -0.0705
     14 C          63.5636   84.4224    8.6966 C.3     1  UNL1        0.0069
     15 C          62.4631   85.0169    7.8687 C.3     1  UNL1        0.0465
     16 C          62.3606   84.6867    6.4091 C.3     1  UNL1        0.0069
     17 C          64.2055   90.8517   14.1247 C.2     1  UNL1        0.2404
     18 O          65.6426   90.5892   14.4653 O.2     1  UNL1       -0.2733
     19 N          63.1323   90.5738   15.1353 N.am    1  UNL1       -0.3013
     20 H          62.1891   90.7461   14.9117 H       1  UNL1        0.1495
     21 C          63.4963   90.0336   16.4864 C.3     1  UNL1        0.1108
     22 C          63.0112   88.6782   16.9077 C.3     1  UNL1        0.1139
     23 N          63.4718   87.4548   16.1721 N.am    1  UNL1       -0.2689
     24 C          63.0147   86.0966   16.6153 C.2     1  UNL1        0.4020
     25 O          62.0969   85.9619   17.7941 O.2     1  UNL1       -0.2264
     26 H          64.0742   87.5432   15.3985 H       1  UNL1        0.1528
     27 O          63.4752   84.8731   15.8799 O.3     1  UNL1       -0.4291
     28 C          63.3816   84.8176   14.3838 C.3     1  UNL1        0.2447
     29 C          62.9500   83.5510   13.7059 C.ar    1  UNL1        0.0714
     30 C          63.0366   83.2640   12.2362 C.ar    1  UNL1        0.1053
     31 N          62.4962   81.8847   12.0006 N.ar    1  UNL1       -0.2350
     32 C          62.0756   81.3193   13.3247 C.ar    1  UNL1        0.1343
     33 S          62.3561   82.3491   14.3787 S.2     1  UNL1       -0.0652
     34 C          64.8563   92.1512   11.9712 C.3     1  UNL1        0.0270
     35 C          65.8823   92.9961   12.6664 C.3     1  UNL1        0.0022
     36 C          64.8450   92.0656   10.4737 C.3     1  UNL1        0.0022
@<TRIPOS>BOND
     1    14    15    1
     2    15    16    1
     3    15     9    1
     4     9    10   ar
     5    10    11   ar
     6    11     8    1
     7     8     2    1
     8     2     3    1
     9     2     4   am
    10     4     5    2
    11     4     6   am
    12     1     6    1
    13     1    17    1
    14    17    18    2
    15    17    19   am
    16    19    21    1
    17    21    22    1
    18    22    23    1
    19    23    24   am
    20    24    25    2
    21    24    27    1
    22    27    28    1
    23    28    29    1
    24    29    30   ar
    25    30    31   ar
    26    31    32   ar
    27    32    33   ar
    28     1    34    1
    29    34    35    1
    30    34    36    1
    31    11    12   ar
    32    12    13   ar
    33    13     9   ar
    34    33    29   ar
    35     6     7    1
    36    19    20    1
    37    23    26    1
@<TRIPOS>MOLECULE
*****
 36 37 0 0 0
SMALL
GASTEIGER

@<TRIPOS>ATOM
      1 C          61.5714   86.2695    8.9738 C.3     1  UNL1        0.1496
      2 N          63.3200   83.8855   11.6212 N.am    1  UNL1       -0.2567
      3 C          64.2687   83.1296   10.7389 C.3     1  UNL1        0.1168
      4 C          62.4209   84.9321   11.0329 C.2     1  UNL1        0.3046
      5 O          61.4721   85.6879   11.9153 O.2     1  UNL1       -0.2526
      6 N          62.4705   85.2229    9.5622 N.am    1  UNL1       -0.2824
      7 H          63.0932   84.7268    8.9831 H       1  UNL1        0.1514
      8 C          63.2704   83.5947   13.0919 C.3     1  UNL1        0.1413
      9 C          63.6052   86.2896   15.8652 C.ar    1  UNL1        0.0875
     10 N          62.7846   85.3005   15.0917 N.ar    1  UNL1       -0.2453
     11 C          63.6782   84.6480   14.0789 C.ar    1  UNL1        0.0858
     12 C          65.0511   85.2338   14.2264 C.ar    1  UNL1        0.0530
     13 S          65.0060   86.2484   15.3304 S.2     1  UNL1       -0.0705
     14 C          63.0754   88.6549   16.8002 C.3     1  UNL1        0.0069
     15 C          63.1117   87.1660   16.9780 C.3     1  UNL1        0.0465
     16 C          62.6544   86.5534   18.2686 C.3     1  UNL1        0.0069
     17 C          61.4685   87.6192    9.6201 C.2     1  UNL1        0.2404
     18 O          62.6784   88.5012    9.7114 O.2     1  UNL1       -0.2733
     19 N          60.1557   88.0870   10.1751 N.am    1  UNL1       -0.3013
     20 H          59.3617   87.5081   10.1152 H       1  UNL1        0.1495
     21 C          60.0529   89.4367   10.8214 C.3     1  UNL1        0.1108
     22 C          60.6223   89.6576   12.1914 C.3     1  UNL1        0.1139
     23 N          61.8645   90.4806   12.3636 N.am    1  UNL1       -0.2689
     24 C          63.1455   89.8253   12.7872 C.2     1  UNL1        0.4020
     25 O          63.1844   88.3471   13.0386 O.2     1  UNL1       -0.2264
     26 H          61.8389   91.4508   12.1985 H       1  UNL1        0.1528
     27 O          64.3878   90.6483   12.9594 O.3     1  UNL1       -0.4291
     28 C          65.0981   90.6668   14.2804 C.3     1  UNL1        0.2447
     29 C          66.2275   91.6266   14.5112 C.ar    1  UNL1        0.0714
     30 C          67.3950   91.8507   13.5964 C.ar    1  UNL1        0.1053
     31 N          68.2768   92.8933   14.2171 N.ar    1  UNL1       -0.2350
     32 C          67.6543   93.3136   15.5155 C.ar    1  UNL1        0.1343
     33 S          66.3878   92.5307   15.6973 S.2     1  UNL1       -0.0652
     34 C          60.7752   85.9665    7.7393 C.3     1  UNL1        0.0270
     35 C          61.3179   85.0192    6.7106 C.3     1  UNL1        0.0022
     36 C          59.4363   86.6106    7.5334 C.3     1  UNL1        0.0022
@<TRIPOS>BOND
     1    14    15    1
     2    15    16    1
     3    15     9    1
     4     9    10   ar
     5    10    11   ar
     6    11     8    1
     7     8     2    1
     8     2     3    1
     9     2     4   am
    10     4     5    2
    11     4     6   am
    12     1     6    1
    13     1    17    1
    14    17    18    2
    15    17    19   am
    16    19    21    1
    17    21    22    1
    18    22    23    1
    19    23    24   am
    20    24    25    2
    21    24    27    1
    22    27    28    1
    23    28    29    1
    24    29    30   ar
    25    30    31   ar
    26    31    32   ar
    27    32    33   ar
    28     1    34    1
    29    34    35    1
    30    34    36    1
    31    11    12   ar
    32    12    13   ar
    33    13     9   ar
    34    33    29   ar
    35     6     7    1
    36    19    20    1
    37    23    26    1
@<TRIPOS>MOLECULE
*****
 36 37 0 0 0
SMALL
GASTEIGER

@<TRIPOS>ATOM
      1 C          61.4373   86.4261    9.2231 C.3     1  UNL1        0.1496
      2 N          63.1807   83.8319   11.6685 N.am    1  UNL1       -0.2567
      3 C          63.9818   83.0190   10.6952 C.3     1  UNL1        0.1168
      4 C          62.3326   84.9676   11.1779 C.2     1  UNL1        0.3046
      5 O          61.5315   85.7804   12.1513 O.2     1  UNL1       -0.2526
      6 N          62.2855   85.2904    9.7138 N.am    1  UNL1       -0.2824
      7 H          62.8113   84.7569    9.0750 H       1  UNL1        0.1514
      8 C          63.2278   83.5090   13.1326 C.3     1  UNL1        0.1413
      9 C          63.6043   86.2093   15.8953 C.ar    1  UNL1        0.0875
     10 N          62.7661   85.2379   15.1183 N.ar    1  UNL1       -0.2453
     11 C          63.6528   84.5567   14.1184 C.ar    1  UNL1        0.0858
     12 C          65.0390   85.1072   14.2774 C.ar    1  UNL1        0.0530
     13 S          65.0090   86.1286   15.3756 S.2     1  UNL1       -0.0705
     14 C          62.6241   86.5105   18.2824 C.3     1  UNL1        0.0069
     15 C          63.1224   87.1044   16.9983 C.3     1  UNL1        0.0465
     16 C          63.1387   88.5933   16.8172 C.3     1  UNL1        0.0069
     17 C          61.4953   87.7574    9.9117 C.2     1  UNL1        0.2404
     18 O          62.6066   88.7155    9.5999 O.2     1  UNL1       -0.2733
     19 N          60.4418   88.1307   10.9123 N.am    1  UNL1       -0.3013
     20 H          59.7124   87.5020   11.1170 H       1  UNL1        0.1495
     21 C          60.4997   89.4620   11.6010 C.3     1  UNL1        0.1108
     22 C          61.6430   89.7833   12.5174 C.3     1  UNL1        0.1139
     23 N          62.8040   90.5887   12.0142 N.am    1  UNL1       -0.2689
     24 C          63.7153   91.2786   12.9855 C.2     1  UNL1        0.4020
     25 O          63.4656   91.1630   14.4601 O.2     1  UNL1       -0.2264
     26 H          62.9679   90.6646   11.0464 H       1  UNL1        0.1528
     27 O          64.8764   92.0842   12.4824 O.3     1  UNL1       -0.4291
     28 C          65.0433   92.3212   11.0107 C.3     1  UNL1        0.2447
     29 C          66.0699   93.2987   10.5202 C.ar    1  UNL1        0.0714
     30 C          67.4016   92.9530    9.9225 C.ar    1  UNL1        0.1053
     31 N          68.0999   94.2340    9.5742 N.ar    1  UNL1       -0.2350
     32 C          67.1998   95.3714    9.9566 C.ar    1  UNL1        0.1343
     33 S          65.9452   94.7933   10.5413 S.2     1  UNL1       -0.0652
     34 C          60.5314   86.2306    8.0438 C.3     1  UNL1        0.0270
     35 C          60.9147   85.2737    6.9541 C.3     1  UNL1        0.0022
     36 C          59.2421   86.9919    7.9541 C.3     1  UNL1        0.0022
@<TRIPOS>BOND
     1    14    15    1
     2    15    16    1
     3    15     9    1
     4     9    10   ar
     5    10    11   ar
     6    11     8    1
     7     8     2    1
     8     2     3    1
     9     2     4   am
    10     4     5    2
    11     4     6   am
    12     1     6    1
    13     1    17    1
    14    17    18    2
    15    17    19   am
    16    19    21    1
    17    21    22    1
    18    22    23    1
    19    23    24   am
    20    24    25    2
    21    24    27    1
    22    27    28    1
    23    28    29    1
    24    29    30   ar
    25    30    31   ar
    26    31    32   ar
    27    32    33   ar
    28     1    34    1
    29    34    35    1
    30    34    36    1
    31    11    12   ar
    32    12    13   ar
    33    13     9   ar
    34    33    29   ar
    35     6     7    1
    36    19    20    1
    37    23    26    1
@<TRIPOS>MOLECULE
*****
 36 37 0 0 0
SMALL
GASTEIGER

@<TRIPOS>ATOM
      1 C          64.8857   91.3837   14.3120 C.3     1  UNL1        0.1496
      2 N          62.5038   90.6704   11.2188 N.am    1  UNL1       -0.2567
      3 C          63.2691   91.3340   10.1127 C.3     1  UNL1        0.1168
      4 C          63.0426   90.6870   12.6186 C.2     1  UNL1        0.3046
      5 O          62.2771   90.0233   13.7248 O.2     1  UNL1       -0.2526
      6 N          64.3468   91.3671   12.9122 N.am    1  UNL1       -0.2824
      7 H          64.8491   91.8027   12.1862 H       1  UNL1        0.1514
      8 C          61.1995   89.9902   10.9252 C.3     1  UNL1        0.1413
      9 C          61.8128   86.6218    9.0967 C.ar    1  UNL1        0.0875
     10 N          62.2517   87.6946   10.0488 N.ar    1  UNL1       -0.2453
     11 C          61.1757   88.7385   10.0990 C.ar    1  UNL1        0.0858
     12 C          60.0717   88.3109    9.1778 C.ar    1  UNL1        0.0530
     13 S          60.4655   87.0028    8.5584 S.2     1  UNL1       -0.0705
     14 C          62.6633   84.9304    7.3174 C.3     1  UNL1        0.0069
     15 C          62.5854   85.3853    8.7447 C.3     1  UNL1        0.0465
     16 C          63.2803   84.6036    9.8199 C.3     1  UNL1        0.0069
     17 C          64.0479   90.8677   15.4442 C.2     1  UNL1        0.2404
     18 O          63.3559   91.8294   16.3641 O.2     1  UNL1       -0.2733
     19 N          63.9023   89.3899   15.6566 N.am    1  UNL1       -0.3013
     20 H          64.3565   88.7587   15.0528 H       1  UNL1        0.1495
     21 C          63.0646   88.8738   16.7888 C.3     1  UNL1        0.1108
     22 C          63.0152   87.4023   17.0751 C.3     1  UNL1        0.1139
     23 N          63.8040   86.4468   16.2296 N.am    1  UNL1       -0.2689
     24 C          63.1313   85.2517   15.6221 C.2     1  UNL1        0.4020
     25 O          61.6698   85.0120   15.8601 O.2     1  UNL1       -0.2264
     26 H          64.7632   86.6042   16.0734 H       1  UNL1        0.1528
     27 O          63.9200   84.2962   14.7765 O.3     1  UNL1       -0.4291
     28 C          63.3801   83.8454   13.4517 C.3     1  UNL1        0.2447
     29 C          62.9289   82.4265   13.2693 C.ar    1  UNL1        0.0714
     30 C          63.4032   81.4802   12.2065 C.ar    1  UNL1        0.1053
     31 N          62.6916   80.1737   12.3979 N.ar    1  UNL1       -0.2350
     32 C          61.7775   80.3125   13.5791 C.ar    1  UNL1        0.1343
     33 S          61.9241   81.7048   14.1176 S.2     1  UNL1       -0.0652
     34 C          66.2621   91.9163   14.5795 C.3     1  UNL1        0.0270
     35 C          67.2786   91.9551   13.4772 C.3     1  UNL1        0.0022
     36 C          66.6221   92.4100   15.9494 C.3     1  UNL1        0.0022
@<TRIPOS>BOND
     1    14    15    1
     2    15    16    1
     3    15     9    1
     4     9    10   ar
     5    10    11   ar
     6    11     8    1
     7     8     2    1
     8     2     3    1
     9     2     4   am
    10     4     5    2
    11     4     6   am
    12     1     6    1
    13     1    17    1
    14    17    18    2
    15    17    19   am
    16    19    21    1
    17    21    22    1
    18    22    23    1
    19    23    24   am
    20    24    25    2
    21    24    27    1
    22    27    28    1
    23    28    29    1
    24    29    30   ar
    25    30    31   ar
    26    31    32   ar
    27    32    33   ar
    28     1    34    1
    29    34    35    1
    30    34    36    1
    31    11    12   ar
    32    12    13   ar
    33    13     9   ar
    34    33    29   ar
    35     6     7    1
    36    19    20    1
    37    23    26    1
@<TRIPOS>MOLECULE
*****
 36 37 0 0 0
SMALL
GASTEIGER

@<TRIPOS>ATOM
      1 C          61.8346   86.9255   10.3601 C.3     1  UNL1        0.1496
      2 N          63.2950   89.9994   12.4017 N.am    1  UNL1       -0.2567
      3 C          63.6688   89.3312   13.6915 C.3     1  UNL1        0.1168
      4 C          62.6836   89.1976   11.2912 C.2     1  UNL1        0.3046
      5 O          62.3097   89.8658   10.0014 O.2     1  UNL1       -0.2526
      6 N          62.4460   87.7275   11.4705 N.am    1  UNL1       -0.2824
      7 H          62.6914   87.2889   12.3171 H       1  UNL1        0.1514
      8 C          63.5325   91.4696   12.2223 C.3     1  UNL1        0.1413
      9 C          66.8530   92.8091   10.7239 C.ar    1  UNL1        0.0875
     10 N          65.4296   92.3636   10.5649 N.ar    1  UNL1       -0.2453
     11 C          64.9116   91.9749   11.9180 C.ar    1  UNL1        0.0858
     12 C          66.0150   92.1802   12.9132 C.ar    1  UNL1        0.0530
     13 S          67.2148   92.6958   12.1752 S.2     1  UNL1       -0.0705
     14 C          67.6933   94.7115    9.1667 C.3     1  UNL1        0.0069
     15 C          67.7561   93.2845    9.6246 C.3     1  UNL1        0.0465
     16 C          68.7220   92.3329    8.9831 C.3     1  UNL1        0.0069
     17 C          62.6192   85.8244    9.7104 C.2     1  UNL1        0.2404
     18 O          63.0680   85.9631    8.2858 O.2     1  UNL1       -0.2733
     19 N          62.9550   84.5846   10.4852 N.am    1  UNL1       -0.3013
     20 H          62.6604   84.4936   11.4202 H       1  UNL1        0.1495
     21 C          63.7395   83.4836    9.8355 C.3     1  UNL1        0.1108
     22 C          64.6021   82.5840   10.6701 C.3     1  UNL1        0.1139
     23 N          64.5689   82.6896   12.1660 N.am    1  UNL1       -0.2689
     24 C          63.6365   81.8222   12.9586 C.2     1  UNL1        0.4020
     25 O          62.7372   80.8492   12.2552 O.2     1  UNL1       -0.2264
     26 H          65.1591   83.3282   12.6276 H       1  UNL1        0.1528
     27 O          63.6032   81.9277   14.4545 O.3     1  UNL1       -0.4291
     28 C          62.6617   82.8887   15.1179 C.3     1  UNL1        0.2447
     29 C          63.1099   84.2870   15.4242 C.ar    1  UNL1        0.0714
     30 C          62.4779   85.2181   16.4159 C.ar    1  UNL1        0.1053
     31 N          63.2462   86.5063   16.3972 N.ar    1  UNL1       -0.2350
     32 C          64.3530   86.3713   15.3939 C.ar    1  UNL1        0.1343
     33 S          64.2689   84.9997   14.7925 S.2     1  UNL1       -0.0652
     34 C          60.4389   87.2245    9.8995 C.3     1  UNL1        0.0270
     35 C          59.9255   86.6251    8.6239 C.3     1  UNL1        0.0022
     36 C          59.5564   88.1229   10.7144 C.3     1  UNL1        0.0022
@<TRIPOS>BOND
     1    14    15    1
     2    15    16    1
     3    15     9    1
     4     9    10   ar
     5    10    11   ar
     6    11     8    1
     7     8     2    1
     8     2     3    1
     9     2     4   am
    10     4     5    2
    11     4     6   am
    12     1     6    1
    13     1    17    1
    14    17    18    2
    15    17    19   am
    16    19    21    1
    17    21    22    1
    18    22    23    1
    19    23    24   am
    20    24    25    2
    21    24    27    1
    22    27    28    1
    23    28    29    1
    24    29    30   ar
    25    30    31   ar
    26    31    32   ar
    27    32    33   ar
    28     1    34    1
    29    34    35    1
    30    34    36    1
    31    11    12   ar
    32    12    13   ar
    33    13     9   ar
    34    33    29   ar
    35     6     7    1
    36    19    20    1
    37    23    26    1
@<TRIPOS>MOLECULE
*****
 36 37 0 0 0
SMALL
GASTEIGER

@<TRIPOS>ATOM
      1 C          61.8543   87.2139   10.6260 C.3     1  UNL1        0.1496
      2 N          63.5870   89.8516   13.0323 N.am    1  UNL1       -0.2567
      3 C          64.1342   88.9476   14.0968 C.3     1  UNL1        0.1168
      4 C          62.8271   89.2738   11.8754 C.2     1  UNL1        0.3046
      5 O          62.2799   90.1779   10.8108 O.2     1  UNL1       -0.2526
      6 N          62.6143   87.7919   11.7829 N.am    1  UNL1       -0.2824
      7 H          62.9734   87.1985   12.4816 H       1  UNL1        0.1514
      8 C          63.7999   91.3336   13.1247 C.3     1  UNL1        0.1413
      9 C          66.7512   92.8005   11.0745 C.ar    1  UNL1        0.0875
     10 N          65.3933   92.1673   11.1471 N.ar    1  UNL1       -0.2453
     11 C          65.0624   91.9445   12.5931 C.ar    1  UNL1        0.0858
     12 C          66.2158   92.4401   13.4142 C.ar    1  UNL1        0.0530
     13 S          67.2595   92.9691   12.4756 S.2     1  UNL1       -0.0705
     14 C          68.3978   92.2233    9.1495 C.3     1  UNL1        0.0069
     15 C          67.4738   93.1957    9.8208 C.3     1  UNL1        0.0465
     16 C          67.2725   94.5633    9.2385 C.3     1  UNL1        0.0069
     17 C          60.6697   87.9447   10.0668 C.2     1  UNL1        0.2404
     18 O          59.4541   88.1649   10.9177 O.2     1  UNL1       -0.2733
     19 N          60.7007   88.4554    8.6567 N.am    1  UNL1       -0.3013
     20 H          61.4984   88.3109    8.0982 H       1  UNL1        0.1495
     21 C          59.5161   89.1862    8.0975 C.3     1  UNL1        0.1108
     22 C          59.3477   89.3165    6.6127 C.3     1  UNL1        0.1139
     23 N          59.8121   90.5585    5.9114 N.am    1  UNL1       -0.2689
     24 C          58.8181   91.4494    5.2270 C.2     1  UNL1        0.4020
     25 O          57.3599   91.0982    5.2437 O.2     1  UNL1       -0.2264
     26 H          60.7691   90.7890    5.9004 H       1  UNL1        0.1528
     27 O          59.2823   92.6914    4.5257 O.3     1  UNL1       -0.4291
     28 C          59.5983   92.6516    3.0599 C.3     1  UNL1        0.2447
     29 C          61.0071   92.8631    2.5903 C.ar    1  UNL1        0.0714
     30 C          62.2112   92.0885    3.0377 C.ar    1  UNL1        0.1053
     31 N          63.4075   92.6330    2.3148 N.ar    1  UNL1       -0.2350
     32 C          62.9427   93.7441    1.4207 C.ar    1  UNL1        0.1343
     33 S          61.4592   93.8863    1.5910 S.2     1  UNL1       -0.0652
     34 C          62.2788   85.9054   10.0283 C.3     1  UNL1        0.0270
     35 C          62.4819   85.7883    8.5468 C.3     1  UNL1        0.0022
     36 C          62.5003   84.7139   10.9122 C.3     1  UNL1        0.0022
@<TRIPOS>BOND
     1    14    15    1
     2    15    16    1
     3    15     9    1
     4     9    10   ar
     5    10    11   ar
     6    11     8    1
     7     8     2    1
     8     2     3    1
     9     2     4   am
    10     4     5    2
    11     4     6   am
    12     1     6    1
    13     1    17    1
    14    17    18    2
    15    17    19   am
    16    19    21    1
    17    21    22    1
    18    22    23    1
    19    23    24   am
    20    24    25    2
    21    24    27    1
    22    27    28    1
    23    28    29    1
    24    29    30   ar
    25    30    31   ar
    26    31    32   ar
    27    32    33   ar
    28     1    34    1
    29    34    35    1
    30    34    36    1
    31    11    12   ar
    32    12    13   ar
    33    13     9   ar
    34    33    29   ar
    35     6     7    1
    36    19    20    1
    37    23    26    1
@<TRIPOS>MOLECULE
*****
 36 37 0 0 0
SMALL
GASTEIGER

@<TRIPOS>ATOM
      1 C          63.7074   89.7865   14.6453 C.3     1  UNL1        0.1496
      2 N          63.4024   86.3212   16.5554 N.am    1  UNL1       -0.2567
      3 C          62.2631   86.6104   17.4871 C.3     1  UNL1        0.1168
      4 C          63.8839   87.3799   15.6081 C.2     1  UNL1        0.3046
      5 O          65.0233   87.0907   14.6764 O.2     1  UNL1       -0.2526
      6 N          63.2260   88.7278   15.5926 N.am    1  UNL1       -0.2824
      7 H          62.4782   88.9176   16.2041 H       1  UNL1        0.1514
      8 C          64.0604   84.9733   16.5710 C.3     1  UNL1        0.1413
      9 C          62.9779   82.2664   14.0084 C.ar    1  UNL1        0.0875
     10 N          62.8045   82.9722   15.3205 N.ar    1  UNL1       -0.2453
     11 C          63.8638   84.0295   15.4218 C.ar    1  UNL1        0.0858
     12 C          64.6919   83.9771   14.1723 C.ar    1  UNL1        0.0530
     13 S          64.1444   82.8875   13.2987 S.2     1  UNL1       -0.0705
     14 C          60.7840   80.8777   14.0974 C.3     1  UNL1        0.0069
     15 C          62.1332   81.1378   13.4959 C.3     1  UNL1        0.0465
     16 C          62.6377   80.2693   12.3818 C.3     1  UNL1        0.0069
     17 C          63.2781   89.7585   13.2083 C.2     1  UNL1        0.2404
     18 O          63.0722   88.4457   12.5125 O.2     1  UNL1       -0.2733
     19 N          63.0546   91.0434   12.4671 N.am    1  UNL1       -0.3013
     20 H          63.1897   91.9050   12.9237 H       1  UNL1        0.1495
     21 C          62.6253   91.0153   11.0301 C.3     1  UNL1        0.1108
     22 C          61.1707   90.8948   10.6842 C.3     1  UNL1        0.1139
     23 N          60.7152   89.8468    9.7125 N.am    1  UNL1       -0.2689
     24 C          60.0360   88.6060   10.2115 C.2     1  UNL1        0.4020
     25 O          59.8123   88.4132   11.6822 O.2     1  UNL1       -0.2264
     26 H          60.8621   89.9734    8.7473 H       1  UNL1        0.1528
     27 O          59.5805   87.5579    9.2399 O.3     1  UNL1       -0.4291
     28 C          60.5809   86.8555    8.3706 C.3     1  UNL1        0.2447
     29 C          61.6074   85.9523    8.9875 C.ar    1  UNL1        0.0714
     30 C          61.6823   85.5610   10.4337 C.ar    1  UNL1        0.1053
     31 N          62.8604   84.6488   10.6066 N.ar    1  UNL1       -0.2350
     32 C          63.5136   84.4763    9.2674 C.ar    1  UNL1        0.1343
     33 S          62.7392   85.2819    8.2667 S.2     1  UNL1       -0.0652
     34 C          64.6180   90.8732   15.1349 C.3     1  UNL1        0.0270
     35 C          65.8955   91.1666   14.4055 C.3     1  UNL1        0.0022
     36 C          64.2513   91.6666   16.3539 C.3     1  UNL1        0.0022
@<TRIPOS>BOND
     1    14    15    1
     2    15    16    1
     3    15     9    1
     4     9    10   ar
     5    10    11   ar
     6    11     8    1
     7     8     2    1
     8     2     3    1
     9     2     4   am
    10     4     5    2
    11     4     6   am
    12     1     6    1
    13     1    17    1
    14    17    18    2
    15    17    19   am
    16    19    21    1
    17    21    22    1
    18    22    23    1
    19    23    24   am
    20    24    25    2
    21    24    27    1
    22    27    28    1
    23    28    29    1
    24    29    30   ar
    25    30    31   ar
    26    31    32   ar
    27    32    33   ar
    28     1    34    1
    29    34    35    1
    30    34    36    1
    31    11    12   ar
    32    12    13   ar
    33    13     9   ar
    34    33    29   ar
    35     6     7    1
    36    19    20    1
    37    23    26    1
@<TRIPOS>MOLECULE
*****
 36 37 0 0 0
SMALL
GASTEIGER

@<TRIPOS>ATOM
      1 C          63.9677   86.9127   15.3786 C.3     1  UNL1        0.1496
      2 N          64.6311   90.4732   13.7561 N.am    1  UNL1       -0.2567
      3 C          65.5557   91.0789   14.7700 C.3     1  UNL1        0.1168
      4 C          64.1018   89.0844   13.9589 C.2     1  UNL1        0.3046
      5 O          63.1771   88.4787   12.9449 O.2     1  UNL1       -0.2526
      6 N          64.4970   88.3014   15.1757 N.am    1  UNL1       -0.2824
      7 H          65.1039   88.6990   15.8411 H       1  UNL1        0.1514
      8 C          64.2358   91.2562   12.5392 C.3     1  UNL1        0.1413
      9 C          66.7597   93.2672   10.3825 C.ar    1  UNL1        0.0875
     10 N          65.8853   92.0677   10.5987 N.ar    1  UNL1       -0.2453
     11 C          65.2017   92.2253   11.9245 C.ar    1  UNL1        0.0858
     12 C          65.6535   93.5223   12.5277 C.ar    1  UNL1        0.0530
     13 S          66.6163   94.1662   11.5746 S.2     1  UNL1       -0.0705
     14 C          68.6343   92.4990    8.7560 C.3     1  UNL1        0.0069
     15 C          67.6253   93.5228    9.1844 C.3     1  UNL1        0.0465
     16 C          67.4819   94.8022    8.4147 C.3     1  UNL1        0.0069
     17 C          64.3010   85.8317   14.3934 C.2     1  UNL1        0.2404
     18 O          65.5889   85.0732   14.5194 O.2     1  UNL1       -0.2733
     19 N          63.3463   85.5093   13.2822 N.am    1  UNL1       -0.3013
     20 H          62.5010   86.0072   13.1995 H       1  UNL1        0.1495
     21 C          63.6795   84.4284   12.2971 C.3     1  UNL1        0.1108
     22 C          62.7813   84.1824   11.1212 C.3     1  UNL1        0.1139
     23 N          61.9847   85.3111   10.5369 N.am    1  UNL1       -0.2689
     24 C          62.1813   85.7039    9.1026 C.2     1  UNL1        0.4020
     25 O          63.1743   84.9680    8.2528 O.2     1  UNL1       -0.2264
     26 H          61.3330   85.7941   11.0947 H       1  UNL1        0.1528
     27 O          61.3848   86.8326    8.5182 O.3     1  UNL1       -0.4291
     28 C          60.1466   87.3158    9.2135 C.3     1  UNL1        0.2447
     29 C          60.2400   88.4045   10.2411 C.ar    1  UNL1        0.0714
     30 C          59.6211   88.3828   11.6073 C.ar    1  UNL1        0.1053
     31 N          59.9672   89.6710   12.2935 N.ar    1  UNL1       -0.2350
     32 C          60.8000   90.4888   11.3514 C.ar    1  UNL1        0.1343
     33 S          60.9686   89.7061   10.0829 S.2     1  UNL1       -0.0652
     34 C          63.1052   86.6048   16.5665 C.3     1  UNL1        0.0270
     35 C          62.8707   87.6520   17.6146 C.3     1  UNL1        0.0022
     36 C          62.4772   85.2498   16.7064 C.3     1  UNL1        0.0022
@<TRIPOS>BOND
     1    14    15    1
     2    15    16    1
     3    15     9    1
     4     9    10   ar
     5    10    11   ar
     6    11     8    1
     7     8     2    1
     8     2     3    1
     9     2     4   am
    10     4     5    2
    11     4     6   am
    12     1     6    1
    13     1    17    1
    14    17    18    2
    15    17    19   am
    16    19    21    1
    17    21    22    1
    18    22    23    1
    19    23    24   am
    20    24    25    2
    21    24    27    1
    22    27    28    1
    23    28    29    1
    24    29    30   ar
    25    30    31   ar
    26    31    32   ar
    27    32    33   ar
    28     1    34    1
    29    34    35    1
    30    34    36    1
    31    11    12   ar
    32    12    13   ar
    33    13     9   ar
    34    33    29   ar
    35     6     7    1
    36    19    20    1
    37    23    26    1
@<TRIPOS>MOLECULE
*****
 36 37 0 0 0
SMALL
GASTEIGER

@<TRIPOS>ATOM
      1 C          63.9296   89.8459   14.6809 C.3     1  UNL1        0.1496
      2 N          63.4523   86.2837   16.3641 N.am    1  UNL1       -0.2567
      3 C          62.3765   86.5849   17.3649 C.3     1  UNL1        0.1168
      4 C          63.9700   87.3706   15.4694 C.2     1  UNL1        0.3046
      5 O          65.0459   87.0693   14.4685 O.2     1  UNL1       -0.2526
      6 N          63.4120   88.7588   15.5756 N.am    1  UNL1       -0.2824
      7 H          62.7059   88.9566   16.2325 H       1  UNL1        0.1514
      8 C          64.0104   84.8954   16.2579 C.3     1  UNL1        0.1413
      9 C          63.3821   82.8339   13.0297 C.ar    1  UNL1        0.0875
     10 N          64.1609   83.8600   13.7982 N.ar    1  UNL1       -0.2453
     11 C          63.5472   83.9827   15.1613 C.ar    1  UNL1        0.0858
     12 C          62.3890   83.0325   15.2354 C.ar    1  UNL1        0.0530
     13 S          62.2869   82.3225   13.9181 S.2     1  UNL1       -0.0705
     14 C          63.0440   81.1268   11.1006 C.3     1  UNL1        0.0069
     15 C          63.6511   82.3961   11.6205 C.3     1  UNL1        0.0465
     16 C          64.5271   83.2277   10.7311 C.3     1  UNL1        0.0069
     17 C          63.6143   89.8240   13.2146 C.2     1  UNL1        0.2404
     18 O          63.2304   88.5357   12.5491 O.2     1  UNL1       -0.2733
     19 N          63.6827   91.0906   12.4138 N.am    1  UNL1       -0.3013
     20 H          63.9346   91.9362   12.8505 H       1  UNL1        0.1495
     21 C          63.3673   91.0688   10.9475 C.3     1  UNL1        0.1108
     22 C          61.9431   90.9663   10.4881 C.3     1  UNL1        0.1139
     23 N          61.3823   89.6381   10.0739 N.am    1  UNL1       -0.2689
     24 C          60.4186   88.9185   10.9702 C.2     1  UNL1        0.4020
     25 O          60.0155   89.5271   12.2807 O.2     1  UNL1       -0.2264
     26 H          61.6469   89.2388    9.2139 H       1  UNL1        0.1528
     27 O          59.8578   87.5904   10.5561 O.3     1  UNL1       -0.4291
     28 C          59.8100   87.2160    9.1044 C.3     1  UNL1        0.2447
     29 C          60.8987   86.3717    8.5114 C.ar    1  UNL1        0.0714
     30 C          62.2774   86.1885    9.0732 C.ar    1  UNL1        0.1053
     31 N          63.0307   85.2659    8.1615 N.ar    1  UNL1       -0.2350
     32 C          62.1176   84.8789    7.0361 C.ar    1  UNL1        0.1343
     33 S          60.8000   85.5623    7.2523 S.2     1  UNL1       -0.0652
     34 C          64.7626   90.9546   15.2524 C.3     1  UNL1        0.0270
     35 C          64.2485   91.7592   16.4092 C.3     1  UNL1        0.0022
     36 C          66.1098   91.2588   14.6672 C.3     1  UNL1        0.0022
@<TRIPOS>BOND
     1    14    15    1
     2    15    16    1
     3    15     9    1
     4     9    10   ar
     5    10    11   ar
     6    11     8    1
     7     8     2    1
     8     2     3    1
     9     2     4   am
    10     4     5    2
    11     4     6   am
    12     1     6    1
    13     1    17    1
    14    17    18    2
    15    17    19   am
    16    19    21    1
    17    21    22    1
    18    22    23    1
    19    23    24   am
    20    24    25    2
    21    24    27    1
    22    27    28    1
    23    28    29    1
    24    29    30   ar
    25    30    31   ar
    26    31    32   ar
    27    32    33   ar
    28     1    34    1
    29    34    35    1
    30    34    36    1
    31    11    12   ar
    32    12    13   ar
    33    13     9   ar
    34    33    29   ar
    35     6     7    1
    36    19    20    1
    37    23    26    1
