@<TRIPOS>MOLECULE
*****
 15 16 0 0 0
SMALL
GASTEIGER

@<TRIPOS>ATOM
      1 C          62.1185   85.4227   11.5879 C.1     1  UNL1       -0.0405
      2 C          61.4165   86.2246   10.5324 C.1     1  UNL1       -0.0583
      3 C          63.1788   80.8402   13.7961 C.3     1  UNL1        0.0521
      4 C          63.3507   82.3295   13.7475 C.ar    1  UNL1        0.0600
      5 C          64.2247   83.0169   14.7542 C.ar    1  UNL1        0.0148
      6 C          64.3966   84.5062   14.7056 C.ar    1  UNL1        0.0034
      7 C          63.6946   85.3081   13.6502 C.ar    1  UNL1        0.0276
      8 C          62.8206   84.6208   12.6434 C.ar    1  UNL1        0.1224
      9 N          62.6487   83.1314   12.6920 N.ar    1  UNL1       -0.2414
     10 C          60.7144   87.0266    9.4769 C.ar    1  UNL1        0.0420
     11 C          59.9375   86.3306    8.3990 C.ar    1  UNL1        0.0082
     12 C          59.2355   87.1325    7.3436 C.ar    1  UNL1        0.0006
     13 C          59.3103   88.6305    7.3661 C.ar    1  UNL1        0.0000
     14 C          60.0872   89.3265    8.4440 C.ar    1  UNL1        0.0006
     15 C          60.7892   88.5245    9.4994 C.ar    1  UNL1        0.0082
@<TRIPOS>BOND
     1     3     4    1
     2     4     5   ar
     3     5     6   ar
     4     6     7   ar
     5     7     8   ar
     6     8     1    1
     7     1     2    3
     8     2    10    1
     9    10    11   ar
    10    11    12   ar
    11    12    13   ar
    12    13    14   ar
    13    14    15   ar
    14     8     9   ar
    15     9     4   ar
    16    15    10   ar
@<TRIPOS>MOLECULE
*****
 15 16 0 0 0
SMALL
GASTEIGER

@<TRIPOS>ATOM
      1 C          64.3627   89.6005   14.5250 C.1     1  UNL1       -0.0405
      2 C          64.7937   90.7658   13.6847 C.1     1  UNL1       -0.0583
      3 C          64.0503   84.4691   15.2808 C.3     1  UNL1        0.0521
      4 C          63.7754   85.8693   15.7431 C.ar    1  UNL1        0.0600
      5 C          63.0695   86.1042   17.0456 C.ar    1  UNL1        0.0148
      6 C          62.7946   87.5044   17.5079 C.ar    1  UNL1        0.0034
      7 C          63.2257   88.6698   16.6677 C.ar    1  UNL1        0.0276
      8 C          63.9316   88.4350   15.3652 C.ar    1  UNL1        0.1224
      9 N          64.2065   87.0347   14.9029 N.ar    1  UNL1       -0.2414
     10 C          65.2248   91.9313   12.8444 C.ar    1  UNL1        0.0420
     11 C          64.8476   91.9903   11.3939 C.ar    1  UNL1        0.0082
     12 C          65.2787   93.1557   10.5537 C.ar    1  UNL1        0.0006
     13 C          66.0869   94.2621   11.1641 C.ar    1  UNL1        0.0000
     14 C          66.4641   94.2031   12.6147 C.ar    1  UNL1        0.0006
     15 C          66.0330   93.0377   13.4548 C.ar    1  UNL1        0.0082
@<TRIPOS>BOND
     1     3     4    1
     2     4     5   ar
     3     5     6   ar
     4     6     7   ar
     5     7     8   ar
     6     8     1    1
     7     1     2    3
     8     2    10    1
     9    10    11   ar
    10    11    12   ar
    11    12    13   ar
    12    13    14   ar
    13    14    15   ar
    14     8     9   ar
    15     9     4   ar
    16    15    10   ar
@<TRIPOS>MOLECULE
*****
 15 16 0 0 0
SMALL
GASTEIGER

@<TRIPOS>ATOM
      1 C          62.6833   86.2904   11.9325 C.1     1  UNL1       -0.0405
      2 C          62.6496   84.8226   12.2397 C.1     1  UNL1       -0.0583
      3 C          64.0241   91.1342   13.2514 C.3     1  UNL1        0.0521
      4 C          63.3873   90.1801   12.2848 C.ar    1  UNL1        0.0600
      5 C          62.7842   90.6939   11.0112 C.ar    1  UNL1        0.0148
      6 C          62.1474   89.7398   10.0446 C.ar    1  UNL1        0.0034
      7 C          62.1138   88.2720   10.3517 C.ar    1  UNL1        0.0276
      8 C          62.7169   87.7583   11.6254 C.ar    1  UNL1        0.1224
      9 N          63.3537   88.7123   12.5919 N.ar    1  UNL1       -0.2414
     10 C          62.6160   83.3547   12.5469 C.ar    1  UNL1        0.0420
     11 C          62.2307   82.8840   13.9179 C.ar    1  UNL1        0.0082
     12 C          62.1971   81.4162   14.2250 C.ar    1  UNL1        0.0006
     13 C          62.5488   80.4191   13.1611 C.ar    1  UNL1        0.0000
     14 C          62.9342   80.8898   11.7900 C.ar    1  UNL1        0.0006
     15 C          62.9678   82.3576   11.4829 C.ar    1  UNL1        0.0082
@<TRIPOS>BOND
     1     3     4    1
     2     4     5   ar
     3     5     6   ar
     4     6     7   ar
     5     7     8   ar
     6     8     1    1
     7     1     2    3
     8     2    10    1
     9    10    11   ar
    10    11    12   ar
    11    12    13   ar
    12    13    14   ar
    13    14    15   ar
    14     8     9   ar
    15     9     4   ar
    16    15    10   ar
@<TRIPOS>MOLECULE
*****
 15 16 0 0 0
SMALL
GASTEIGER

@<TRIPOS>ATOM
      1 C          62.8958   89.7120   11.3594 C.1     1  UNL1       -0.0405
      2 C          61.9918   89.0084   10.3911 C.1     1  UNL1       -0.0583
      3 C          66.1459   93.6139   12.4605 C.3     1  UNL1        0.0521
      4 C          65.4248   92.3667   12.8783 C.ar    1  UNL1        0.0600
      5 C          65.6077   91.8232   14.2643 C.ar    1  UNL1        0.0148
      6 C          64.8867   90.5760   14.6821 C.ar    1  UNL1        0.0034
      7 C          63.9827   89.8723   13.7138 C.ar    1  UNL1        0.0276
      8 C          63.7998   90.4158   12.3278 C.ar    1  UNL1        0.1224
      9 N          64.5209   91.6630   11.9100 N.ar    1  UNL1       -0.2414
     10 C          61.0878   88.3047    9.4228 C.ar    1  UNL1        0.0420
     11 C          60.1299   89.0946    8.5812 C.ar    1  UNL1        0.0082
     12 C          59.2259   88.3909    7.6129 C.ar    1  UNL1        0.0006
     13 C          59.2799   86.8972    7.4862 C.ar    1  UNL1        0.0000
     14 C          60.2379   86.1073    8.3278 C.ar    1  UNL1        0.0006
     15 C          61.1418   86.8110    9.2961 C.ar    1  UNL1        0.0082
@<TRIPOS>BOND
     1     3     4    1
     2     4     5   ar
     3     5     6   ar
     4     6     7   ar
     5     7     8   ar
     6     8     1    1
     7     1     2    3
     8     2    10    1
     9    10    11   ar
    10    11    12   ar
    11    12    13   ar
    12    13    14   ar
    13    14    15   ar
    14     8     9   ar
    15     9     4   ar
    16    15    10   ar
@<TRIPOS>MOLECULE
*****
 15 16 0 0 0
SMALL
GASTEIGER

@<TRIPOS>ATOM
      1 C          62.7526   88.8732   11.7537 C.1     1  UNL1       -0.0405
      2 C          62.1343   88.0785   10.6419 C.1     1  UNL1       -0.0583
      3 C          63.3248   89.8183   16.8310 C.3     1  UNL1        0.0521
      4 C          63.6571   90.1404   15.4042 C.ar    1  UNL1        0.0600
      5 C          64.6077   91.2571   15.0892 C.ar    1  UNL1        0.0148
      6 C          64.9400   91.5792   13.6624 C.ar    1  UNL1        0.0034
      7 C          64.3216   90.7846   12.5505 C.ar    1  UNL1        0.0276
      8 C          63.3710   89.6679   12.8656 C.ar    1  UNL1        0.1224
      9 N          63.0388   89.3458   14.2924 N.ar    1  UNL1       -0.2414
     10 C          61.5159   87.2839    9.5300 C.ar    1  UNL1        0.0420
     11 C          60.0919   87.5346    9.1310 C.ar    1  UNL1        0.0082
     12 C          59.4736   86.7399    8.0192 C.ar    1  UNL1        0.0006
     13 C          60.2793   85.6945    7.3064 C.ar    1  UNL1        0.0000
     14 C          61.7033   85.4438    7.7055 C.ar    1  UNL1        0.0006
     15 C          62.3216   86.2384    8.8173 C.ar    1  UNL1        0.0082
@<TRIPOS>BOND
     1     3     4    1
     2     4     5   ar
     3     5     6   ar
     4     6     7   ar
     5     7     8   ar
     6     8     1    1
     7     1     2    3
     8     2    10    1
     9    10    11   ar
    10    11    12   ar
    11    12    13   ar
    12    13    14   ar
    13    14    15   ar
    14     8     9   ar
    15     9     4   ar
    16    15    10   ar
@<TRIPOS>MOLECULE
*****
 15 16 0 0 0
SMALL
GASTEIGER

@<TRIPOS>ATOM
      1 C          63.3743   86.2331   13.1984 C.1     1  UNL1       -0.0405
      2 C          63.1298   84.7546   13.1333 C.1     1  UNL1       -0.0583
      3 C          62.8692   90.9731   11.1302 C.3     1  UNL1        0.0521
      4 C          63.3663   90.0816   12.2294 C.ar    1  UNL1        0.0600
      5 C          64.1080   90.6686   13.3935 C.ar    1  UNL1        0.0148
      6 C          64.6051   89.7771   14.4927 C.ar    1  UNL1        0.0034
      7 C          64.3606   88.2986   14.4277 C.ar    1  UNL1        0.0276
      8 C          63.6189   87.7116   13.2635 C.ar    1  UNL1        0.1224
      9 N          63.1218   88.6031   12.1643 N.ar    1  UNL1       -0.2414
     10 C          62.8853   83.2761   13.0683 C.ar    1  UNL1        0.0420
     11 C          62.3104   82.5581   14.2531 C.ar    1  UNL1        0.0082
     12 C          62.0658   81.0796   14.1880 C.ar    1  UNL1        0.0006
     13 C          62.3962   80.3191   12.9380 C.ar    1  UNL1        0.0000
     14 C          62.9711   81.0371   11.7531 C.ar    1  UNL1        0.0006
     15 C          63.2156   82.5156   11.8183 C.ar    1  UNL1        0.0082
@<TRIPOS>BOND
     1     3     4    1
     2     4     5   ar
     3     5     6   ar
     4     6     7   ar
     5     7     8   ar
     6     8     1    1
     7     1     2    3
     8     2    10    1
     9    10    11   ar
    10    11    12   ar
    11    12    13   ar
    12    13    14   ar
    13    14    15   ar
    14     8     9   ar
    15     9     4   ar
    16    15    10   ar
@<TRIPOS>MOLECULE
*****
 15 16 0 0 0
SMALL
GASTEIGER

@<TRIPOS>ATOM
      1 C          63.6852   90.3134   12.5969 C.1     1  UNL1       -0.0405
      2 C          64.7809   90.9545   13.3960 C.1     1  UNL1       -0.0583
      3 C          61.3341   86.0423   10.7999 C.3     1  UNL1        0.0521
      4 C          61.4139   87.5368   10.8994 C.ar    1  UNL1        0.0600
      5 C          60.3980   88.3904   10.1998 C.ar    1  UNL1        0.0148
      6 C          60.4779   89.8849   10.2993 C.ar    1  UNL1        0.0034
      7 C          61.5736   90.5260   11.0983 C.ar    1  UNL1        0.0276
      8 C          62.5894   89.6724   11.7979 C.ar    1  UNL1        0.1224
      9 N          62.5096   88.1779   11.6984 N.ar    1  UNL1       -0.2414
     10 C          65.8766   91.5955   14.1951 C.ar    1  UNL1        0.0420
     11 C          67.2470   91.7453   13.6037 C.ar    1  UNL1        0.0082
     12 C          68.3426   92.3863   14.4028 C.ar    1  UNL1        0.0006
     13 C          68.0680   92.8775   15.7933 C.ar    1  UNL1        0.0000
     14 C          66.6977   92.7276   16.3846 C.ar    1  UNL1        0.0006
     15 C          65.6020   92.0867   15.5855 C.ar    1  UNL1        0.0082
@<TRIPOS>BOND
     1     3     4    1
     2     4     5   ar
     3     5     6   ar
     4     6     7   ar
     5     7     8   ar
     6     8     1    1
     7     1     2    3
     8     2    10    1
     9    10    11   ar
    10    11    12   ar
    11    12    13   ar
    12    13    14   ar
    13    14    15   ar
    14     8     9   ar
    15     9     4   ar
    16    15    10   ar
@<TRIPOS>MOLECULE
*****
 15 16 0 0 0
SMALL
GASTEIGER

@<TRIPOS>ATOM
      1 C          63.6254   90.5416   12.6609 C.1     1  UNL1       -0.0405
      2 C          64.7824   91.1113   13.4270 C.1     1  UNL1       -0.0583
      3 C          58.6580   89.0278   12.4778 C.3     1  UNL1        0.0521
      4 C          59.9846   89.2151   11.8033 C.ar    1  UNL1        0.0600
      5 C          60.1543   88.8328   10.3628 C.ar    1  UNL1        0.0148
      6 C          61.4809   89.0201    9.6883 C.ar    1  UNL1        0.0034
      7 C          62.6380   89.5897   10.4543 C.ar    1  UNL1        0.0276
      8 C          62.4683   89.9720   11.8948 C.ar    1  UNL1        0.1224
      9 N          61.1417   89.7847   12.5693 N.ar    1  UNL1       -0.2414
     10 C          65.9394   91.6809   14.1931 C.ar    1  UNL1        0.0420
     11 C          65.7361   92.1923   15.5884 C.ar    1  UNL1        0.0082
     12 C          66.8931   92.7619   16.3544 C.ar    1  UNL1        0.0006
     13 C          68.2535   92.8201   15.7251 C.ar    1  UNL1        0.0000
     14 C          68.4568   92.3086   14.3297 C.ar    1  UNL1        0.0006
     15 C          67.2998   91.7390   13.5637 C.ar    1  UNL1        0.0082
@<TRIPOS>BOND
     1     3     4    1
     2     4     5   ar
     3     5     6   ar
     4     6     7   ar
     5     7     8   ar
     6     8     1    1
     7     1     2    3
     8     2    10    1
     9    10    11   ar
    10    11    12   ar
    11    12    13   ar
    12    13    14   ar
    13    14    15   ar
    14     8     9   ar
    15     9     4   ar
    16    15    10   ar
@<TRIPOS>MOLECULE
*****
 15 16 0 0 0
SMALL
GASTEIGER

@<TRIPOS>ATOM
      1 C          65.1573   91.2493   13.4733 C.1     1  UNL1       -0.0405
      2 C          65.7701   92.1677   12.4580 C.1     1  UNL1       -0.0583
      3 C          64.1111   86.4400   15.1396 C.3     1  UNL1        0.0521
      4 C          64.0213   87.9262   15.3217 C.ar    1  UNL1        0.0600
      5 C          63.3187   88.4939   16.5192 C.ar    1  UNL1        0.0148
      6 C          63.2289   89.9801   16.7014 C.ar    1  UNL1        0.0034
      7 C          63.8417   90.8985   15.6861 C.ar    1  UNL1        0.0276
      8 C          64.5444   90.3308   14.4887 C.ar    1  UNL1        0.1224
      9 N          64.6342   88.8446   14.3065 N.ar    1  UNL1       -0.2414
     10 C          66.3830   93.0861   11.4426 C.ar    1  UNL1        0.0420
     11 C          67.2428   92.5272   10.3480 C.ar    1  UNL1        0.0082
     12 C          67.8557   93.4457    9.3328 C.ar    1  UNL1        0.0006
     13 C          67.6087   94.9230    9.4121 C.ar    1  UNL1        0.0000
     14 C          66.7488   95.4820   10.5067 C.ar    1  UNL1        0.0006
     15 C          66.1360   94.5635   11.5220 C.ar    1  UNL1        0.0082
@<TRIPOS>BOND
     1     3     4    1
     2     4     5   ar
     3     5     6   ar
     4     6     7   ar
     5     7     8   ar
     6     8     1    1
     7     1     2    3
     8     2    10    1
     9    10    11   ar
    10    11    12   ar
    11    12    13   ar
    12    13    14   ar
    13    14    15   ar
    14     8     9   ar
    15     9     4   ar
    16    15    10   ar
