@<TRIPOS>MOLECULE
*****
 29 32 0 0 0
SMALL
GASTEIGER

@<TRIPOS>ATOM
      1 C          62.4415   90.2771   11.3318 C.3     1  UNL1        0.0844
      2 C          62.9181   90.9655   10.0872 C.3     1  UNL1        0.0243
      3 C          64.0660   91.9287   10.1557 C.3     1  UNL1        0.0450
      4 C          64.7372   92.2034   11.4688 C.ar    1  UNL1        0.0350
      5 C          64.2605   91.5150   12.7133 C.ar    1  UNL1        0.0099
      6 C          65.1120   91.9820   13.8565 C.ar    1  UNL1        0.0942
      7 N          65.1037   91.6438   15.3178 N.ar    1  UNL1       -0.2427
      8 C          66.0983   92.2826   16.2411 C.ar    1  UNL1        0.0989
      9 C          67.1012   93.2597   15.7031 C.ar    1  UNL1        0.0222
     10 C          67.1096   93.5979   14.2418 C.ar    1  UNL1        0.0203
     11 C          66.1149   92.9591   13.3185 C.ar    1  UNL1        0.0775
     12 N          65.8833   93.0959   11.8428 N.ar    1  UNL1       -0.3244
     13 C          63.1127   90.5518   12.6448 C.3     1  UNL1        0.0468
     14 C          60.1586   89.4293   12.2372 C.3     1  UNL1        0.1149
     15 N          61.2936   89.3138   11.2633 N.3     1  UNL1       -0.1551
     16 S          61.2807   88.2352   10.2209 S.O2    1  UNL1        0.0633
     17 O          60.1945   88.9608    9.4836 O.2     1  UNL1       -0.1528
     18 O          62.3670   87.5097   10.9584 O.2     1  UNL1       -0.1528
     19 C          61.2680   87.1567    9.1787 C.ar    1  UNL1        0.1223
     20 C          60.0245   86.9001    8.3800 C.ar    1  UNL1        0.0222
     21 C          60.0118   85.8215    7.3378 C.ar    1  UNL1        0.0310
     22 C          61.2425   84.9993    7.0941 C.ar    1  UNL1        0.1402
     23 F          61.2298   83.9207    6.0518 F       1  UNL1       -0.2042
     24 C          62.4861   85.2559    7.8928 C.ar    1  UNL1        0.0310
     25 C          62.4988   86.3346    8.9350 C.ar    1  UNL1        0.0222
     26 C          66.6612   93.9715   10.9057 C.3     1  UNL1        0.1475
     27 C          67.6597   93.3636    9.9659 C.2     1  UNL1        0.0732
     28 O          67.7907   93.8902    8.5675 O.co2   1  UNL1       -0.5472
     29 O          68.5272   92.2290   10.4244 O.co2   1  UNL1       -0.5472
@<TRIPOS>UNITY_ATOM_ATTR
28 1
charge -1
@<TRIPOS>BOND
     1    14    15    1
     2     1    15    1
     3     1     2    1
     4     2     3    1
     5     3     4    1
     6     4     5   ar
     7     5     6   ar
     8     6     7   ar
     9     7     8   ar
    10     8     9   ar
    11     9    10   ar
    12    10    11   ar
    13    11    12   ar
    14    12    26    1
    15    26    27    1
    16    27    28   ar
    17    27    29   ar
    18     5    13    1
    19    15    16    1
    20    16    17    2
    21    16    18    2
    22    16    19    1
    23    19    20   ar
    24    20    21   ar
    25    21    22   ar
    26    22    23    1
    27    22    24   ar
    28    24    25   ar
    29    13     1    1
    30    25    19   ar
    31    12     4   ar
    32    11     6   ar
@<TRIPOS>MOLECULE
*****
 29 32 0 0 0
SMALL
GASTEIGER

@<TRIPOS>ATOM
      1 C          62.4734   89.6442   11.3565 C.3     1  UNL1        0.0844
      2 C          62.6563   90.4282   10.0909 C.3     1  UNL1        0.0243
      3 C          63.6111   91.5846   10.0565 C.3     1  UNL1        0.0450
      4 C          64.3829   91.9569   11.2876 C.ar    1  UNL1        0.0350
      5 C          64.1999   91.1729   12.5532 C.ar    1  UNL1        0.0099
      6 C          65.0914   91.7700   13.6015 C.ar    1  UNL1        0.0942
      7 N          65.3296   91.4127   15.0386 N.ar    1  UNL1       -0.2427
      8 C          66.3018   92.2085   15.8580 C.ar    1  UNL1        0.0989
      9 C          67.0358   93.3616   15.2402 C.ar    1  UNL1        0.0222
     10 C          66.7975   93.7189   13.8031 C.ar    1  UNL1        0.0203
     11 C          65.8253   92.9231   12.9837 C.ar    1  UNL1        0.0775
     12 N          65.3874   93.0386   11.5537 N.ar    1  UNL1       -0.3244
     13 C          63.2452   90.0165   12.5877 C.3     1  UNL1        0.0468
     14 C          60.0618   88.7257   11.6578 C.3     1  UNL1        0.1149
     15 N          61.5186   88.4877   11.3910 N.3     1  UNL1       -0.1551
     16 S          62.0206   87.0934   11.1588 S.O2    1  UNL1        0.0633
     17 O          61.1220   86.9689    9.9642 O.2     1  UNL1       -0.1528
     18 O          62.9193   87.2181   12.3534 O.2     1  UNL1       -0.1528
     19 C          62.5227   85.6992   10.9266 C.ar    1  UNL1        0.1223
     20 C          62.5564   84.7159   12.0588 C.ar    1  UNL1        0.0222
     21 C          63.0585   83.3217   11.8265 C.ar    1  UNL1        0.0310
     22 C          63.5269   82.9107   10.4621 C.ar    1  UNL1        0.1402
     23 F          64.0290   81.5164   10.2298 F       1  UNL1       -0.2042
     24 C          63.4932   83.8941    9.3298 C.ar    1  UNL1        0.0310
     25 C          62.9911   85.2883    9.5621 C.ar    1  UNL1        0.0222
     26 C          65.8695   94.0571   10.5635 C.3     1  UNL1        0.1475
     27 C          67.1065   93.7926    9.7575 C.2     1  UNL1        0.0732
     28 O          67.3192   94.5047    8.4545 O.co2   1  UNL1       -0.5472
     29 O          68.1309   92.8159   10.2542 O.co2   1  UNL1       -0.5472
@<TRIPOS>UNITY_ATOM_ATTR
28 1
charge -1
@<TRIPOS>BOND
     1    14    15    1
     2     1    15    1
     3     1     2    1
     4     2     3    1
     5     3     4    1
     6     4     5   ar
     7     5     6   ar
     8     6     7   ar
     9     7     8   ar
    10     8     9   ar
    11     9    10   ar
    12    10    11   ar
    13    11    12   ar
    14    12    26    1
    15    26    27    1
    16    27    28   ar
    17    27    29   ar
    18     5    13    1
    19    15    16    1
    20    16    17    2
    21    16    18    2
    22    16    19    1
    23    19    20   ar
    24    20    21   ar
    25    21    22   ar
    26    22    23    1
    27    22    24   ar
    28    24    25   ar
    29    13     1    1
    30    25    19   ar
    31    12     4   ar
    32    11     6   ar
@<TRIPOS>MOLECULE
*****
 29 32 0 0 0
SMALL
GASTEIGER

@<TRIPOS>ATOM
      1 C          62.1141   89.7203   12.2517 C.3     1  UNL1        0.0844
      2 C          62.6551   89.2844   13.5810 C.3     1  UNL1        0.0243
      3 C          63.9018   89.9153   14.1268 C.3     1  UNL1        0.0450
      4 C          64.6073   90.9821   13.3431 C.ar    1  UNL1        0.0350
      5 C          64.0663   91.4180   12.0137 C.ar    1  UNL1        0.0099
      6 C          64.9710   92.4849   11.4722 C.ar    1  UNL1        0.0942
      7 N          64.9351   93.2817   10.2019 N.ar    1  UNL1       -0.2427
      8 C          65.9995   94.3021    9.9264 C.ar    1  UNL1        0.0989
      9 C          67.0997   94.5256   10.9211 C.ar    1  UNL1        0.0222
     10 C          67.1356   93.7287   12.1914 C.ar    1  UNL1        0.0203
     11 C          66.0712   92.7084   12.4670 C.ar    1  UNL1        0.0775
     12 N          65.8465   91.7796   13.6232 N.ar    1  UNL1       -0.3244
     13 C          62.8196   90.7871   11.4680 C.3     1  UNL1        0.0468
     14 C          59.5314   89.4405   12.2905 C.3     1  UNL1        0.1149
     15 N          60.8674   89.0893   11.7059 N.3     1  UNL1       -0.1551
     16 S          60.9568   88.1073   10.5756 S.O2    1  UNL1        0.0633
     17 O          60.6576   89.2051    9.5982 O.2     1  UNL1       -0.1528
     18 O          61.2559   87.0095   11.5531 O.2     1  UNL1       -0.1528
     19 C          61.0462   87.1252    9.4454 C.ar    1  UNL1        0.1223
     20 C          62.3251   86.3818    9.1971 C.ar    1  UNL1        0.0222
     21 C          62.4144   85.3997    8.0668 C.ar    1  UNL1        0.0310
     22 C          61.2249   85.1610    7.1847 C.ar    1  UNL1        0.1402
     23 F          61.3142   84.1790    6.0545 F       1  UNL1       -0.2042
     24 C          59.9459   85.9046    7.4330 C.ar    1  UNL1        0.0310
     25 C          59.8566   86.8866    8.5633 C.ar    1  UNL1        0.0222
     26 C          66.7094   91.6680   14.8451 C.3     1  UNL1        0.1475
     27 C          66.5943   92.6864   15.9402 C.2     1  UNL1        0.0732
     28 O          67.6487   93.7417   16.0969 O.co2   1  UNL1       -0.5472
     29 O          65.4247   92.6497   16.8787 O.co2   1  UNL1       -0.5472
@<TRIPOS>UNITY_ATOM_ATTR
28 1
charge -1
@<TRIPOS>BOND
     1    14    15    1
     2     1    15    1
     3     1     2    1
     4     2     3    1
     5     3     4    1
     6     4     5   ar
     7     5     6   ar
     8     6     7   ar
     9     7     8   ar
    10     8     9   ar
    11     9    10   ar
    12    10    11   ar
    13    11    12   ar
    14    12    26    1
    15    26    27    1
    16    27    28   ar
    17    27    29   ar
    18     5    13    1
    19    15    16    1
    20    16    17    2
    21    16    18    2
    22    16    19    1
    23    19    20   ar
    24    20    21   ar
    25    21    22   ar
    26    22    23    1
    27    22    24   ar
    28    24    25   ar
    29    13     1    1
    30    25    19   ar
    31    12     4   ar
    32    11     6   ar
@<TRIPOS>MOLECULE
*****
 29 32 0 0 0
SMALL
GASTEIGER

@<TRIPOS>ATOM
      1 C          64.4947   89.9296   13.7638 C.3     1  UNL1        0.0844
      2 C          64.8037   88.7727   14.6672 C.3     1  UNL1        0.0243
      3 C          64.2843   87.4046   14.3383 C.3     1  UNL1        0.0450
      4 C          63.4557   87.1932   13.1058 C.ar    1  UNL1        0.0350
      5 C          63.1467   88.3501   12.2024 C.ar    1  UNL1        0.0099
      6 C          62.3110   87.8403   11.0658 C.ar    1  UNL1        0.0942
      7 N          61.7121   88.5262    9.8738 N.ar    1  UNL1       -0.2427
      8 C          60.9058   87.7402    8.8829 C.ar    1  UNL1        0.0989
      9 C          60.6984   86.2683    9.0839 C.ar    1  UNL1        0.0222
     10 C          61.2972   85.5823   10.2759 C.ar    1  UNL1        0.0203
     11 C          62.1035   86.3683   11.2668 C.ar    1  UNL1        0.0775
     12 N          62.8110   85.9685   12.5276 N.ar    1  UNL1       -0.3244
     13 C          63.6661   89.7182   12.5314 C.3     1  UNL1        0.0468
     14 C          64.9457   91.8071   15.5020 C.3     1  UNL1        0.1149
     15 N          65.0142   91.2978   14.0928 N.3     1  UNL1       -0.1551
     16 S          65.6021   92.1566   13.0125 S.O2    1  UNL1        0.0633
     17 O          66.9784   91.8774   13.5397 O.2     1  UNL1       -0.1528
     18 O          64.2257   92.4357   12.4854 O.2     1  UNL1       -0.1528
     19 C          66.1899   93.0153   11.9323 C.ar    1  UNL1        0.1223
     20 C          66.0761   94.5086   12.0161 C.ar    1  UNL1        0.0222
     21 C          66.6639   95.3673   10.9358 C.ar    1  UNL1        0.0310
     22 C          67.3656   94.7328    9.7717 C.ar    1  UNL1        0.1402
     23 F          67.9535   95.5915    8.6915 F       1  UNL1       -0.2042
     24 C          67.4795   93.2394    9.6880 C.ar    1  UNL1        0.0310
     25 C          66.8916   92.3807   10.7683 C.ar    1  UNL1        0.0222
     26 C          62.8644   84.5864   13.1082 C.3     1  UNL1        0.1475
     27 C          62.8453   84.3967   14.5960 C.2     1  UNL1        0.0732
     28 O          61.6720   84.8761   15.3983 O.co2   1  UNL1       -0.5472
     29 O          63.9994   83.7275   15.2817 O.co2   1  UNL1       -0.5472
@<TRIPOS>UNITY_ATOM_ATTR
28 1
charge -1
@<TRIPOS>BOND
     1    14    15    1
     2     1    15    1
     3     1     2    1
     4     2     3    1
     5     3     4    1
     6     4     5   ar
     7     5     6   ar
     8     6     7   ar
     9     7     8   ar
    10     8     9   ar
    11     9    10   ar
    12    10    11   ar
    13    11    12   ar
    14    12    26    1
    15    26    27    1
    16    27    28   ar
    17    27    29   ar
    18     5    13    1
    19    15    16    1
    20    16    17    2
    21    16    18    2
    22    16    19    1
    23    19    20   ar
    24    20    21   ar
    25    21    22   ar
    26    22    23    1
    27    22    24   ar
    28    24    25   ar
    29    13     1    1
    30    25    19   ar
    31    12     4   ar
    32    11     6   ar
@<TRIPOS>MOLECULE
*****
 29 32 0 0 0
SMALL
GASTEIGER

@<TRIPOS>ATOM
      1 C          63.3384   85.8566   12.9701 C.3     1  UNL1        0.0844
      2 C          63.8511   87.1776   13.4622 C.3     1  UNL1        0.0243
      3 C          63.4401   88.4453   12.7737 C.3     1  UNL1        0.0450
      4 C          62.5164   88.3920   11.5930 C.ar    1  UNL1        0.0350
      5 C          62.0037   87.0710   11.1009 C.ar    1  UNL1        0.0099
      6 C          61.1123   87.3296    9.9225 C.ar    1  UNL1        0.0942
      7 N          60.3305   86.4081    9.0340 N.ar    1  UNL1       -0.2427
      8 C          59.5106   86.9673    7.9093 C.ar    1  UNL1        0.0989
      9 C          59.4724   88.4481    7.6732 C.ar    1  UNL1        0.0222
     10 C          60.2542   89.3697    8.5616 C.ar    1  UNL1        0.0203
     11 C          61.0742   88.8104    9.6863 C.ar    1  UNL1        0.0775
     12 N          61.9419   89.4670   10.7187 N.ar    1  UNL1       -0.3244
     13 C          62.4147   85.8034   11.7894 C.3     1  UNL1        0.0468
     14 C          64.4161   84.6468   15.0010 C.3     1  UNL1        0.1149
     15 N          63.7494   84.5889   13.6586 N.3     1  UNL1       -0.1551
     16 S          63.4937   83.2634   13.0046 S.O2    1  UNL1        0.0633
     17 O          62.3205   83.0417   13.9126 O.2     1  UNL1       -0.1528
     18 O          64.6670   83.4851   12.0966 O.2     1  UNL1       -0.1528
     19 C          63.2381   81.9380   12.3506 C.ar    1  UNL1        0.1223
     20 C          63.4161   81.7859   10.8690 C.ar    1  UNL1        0.0222
     21 C          63.1604   80.4604   10.2151 C.ar    1  UNL1        0.0310
     22 C          62.7268   79.2869   11.0427 C.ar    1  UNL1        0.1402
     23 F          62.4712   77.9614   10.3887 F       1  UNL1       -0.2042
     24 C          62.5488   79.4390   12.5244 C.ar    1  UNL1        0.0310
     25 C          62.8045   80.7645   13.1783 C.ar    1  UNL1        0.0222
     26 C          62.1914   90.9400   10.8533 C.3     1  UNL1        0.1475
     27 C          63.4909   91.4321   11.4180 C.2     1  UNL1        0.0732
     28 O          64.6223   91.7856   10.4987 O.co2   1  UNL1       -0.5472
     29 O          63.6592   91.5708   12.9021 O.co2   1  UNL1       -0.5472
@<TRIPOS>UNITY_ATOM_ATTR
28 1
charge -1
@<TRIPOS>BOND
     1    14    15    1
     2     1    15    1
     3     1     2    1
     4     2     3    1
     5     3     4    1
     6     4     5   ar
     7     5     6   ar
     8     6     7   ar
     9     7     8   ar
    10     8     9   ar
    11     9    10   ar
    12    10    11   ar
    13    11    12   ar
    14    12    26    1
    15    26    27    1
    16    27    28   ar
    17    27    29   ar
    18     5    13    1
    19    15    16    1
    20    16    17    2
    21    16    18    2
    22    16    19    1
    23    19    20   ar
    24    20    21   ar
    25    21    22   ar
    26    22    23    1
    27    22    24   ar
    28    24    25   ar
    29    13     1    1
    30    25    19   ar
    31    12     4   ar
    32    11     6   ar
@<TRIPOS>MOLECULE
*****
 29 32 0 0 0
SMALL
GASTEIGER

@<TRIPOS>ATOM
      1 C          62.7678   89.5647   12.2915 C.3     1  UNL1        0.0844
      2 C          63.1580   89.4640   13.7363 C.3     1  UNL1        0.0243
      3 C          64.1326   90.4435   14.3200 C.3     1  UNL1        0.0450
      4 C          64.7170   91.5237   13.4588 C.ar    1  UNL1        0.0350
      5 C          64.3268   91.6244   12.0140 C.ar    1  UNL1        0.0099
      6 C          65.0622   92.7865   11.4151 C.ar    1  UNL1        0.0942
      7 N          65.0718   93.3622   10.0300 N.ar    1  UNL1       -0.2427
      8 C          65.9262   94.5554    9.7197 C.ar    1  UNL1        0.0989
      9 C          66.7710   95.1729   10.7944 C.ar    1  UNL1        0.0222
     10 C          66.7614   94.5972   12.1795 C.ar    1  UNL1        0.0203
     11 C          65.9070   93.4041   12.4898 C.ar    1  UNL1        0.0775
     12 N          65.6936   92.6236   13.7529 N.ar    1  UNL1       -0.3244
     13 C          63.3522   90.6449   11.4303 C.3     1  UNL1        0.0468
     14 C          60.3755   89.0015   11.4491 C.3     1  UNL1        0.1149
     15 N          61.7932   88.5851   11.7078 N.3     1  UNL1       -0.1551
     16 S          62.2362   87.1894   11.3827 S.O2    1  UNL1        0.0633
     17 O          63.1328   87.1940   12.5853 O.2     1  UNL1       -0.1528
     18 O          61.3396   87.1849   10.1802 O.2     1  UNL1       -0.1528
     19 C          62.6792   85.7938   11.0577 C.ar    1  UNL1        0.1223
     20 C          62.8668   85.3802    9.6281 C.ar    1  UNL1        0.0222
     21 C          63.3099   83.9845    9.3031 C.ar    1  UNL1        0.0310
     22 C          63.5653   83.0022   10.4076 C.ar    1  UNL1        0.1402
     23 F          64.0084   81.6065   10.0825 F       1  UNL1       -0.2042
     24 C          63.3777   83.4158   11.8372 C.ar    1  UNL1        0.0310
     25 C          62.9347   84.8116   12.1622 C.ar    1  UNL1        0.0222
     26 C          66.3429   92.8953   15.0775 C.3     1  UNL1        0.1475
     27 C          67.8172   93.1617   15.1495 C.2     1  UNL1        0.0732
     28 O          68.3529   94.1524   16.1404 O.co2   1  UNL1       -0.5472
     29 O          68.7561   92.4375   14.2308 O.co2   1  UNL1       -0.5472
@<TRIPOS>UNITY_ATOM_ATTR
28 1
charge -1
@<TRIPOS>BOND
     1    14    15    1
     2     1    15    1
     3     1     2    1
     4     2     3    1
     5     3     4    1
     6     4     5   ar
     7     5     6   ar
     8     6     7   ar
     9     7     8   ar
    10     8     9   ar
    11     9    10   ar
    12    10    11   ar
    13    11    12   ar
    14    12    26    1
    15    26    27    1
    16    27    28   ar
    17    27    29   ar
    18     5    13    1
    19    15    16    1
    20    16    17    2
    21    16    18    2
    22    16    19    1
    23    19    20   ar
    24    20    21   ar
    25    21    22   ar
    26    22    23    1
    27    22    24   ar
    28    24    25   ar
    29    13     1    1
    30    25    19   ar
    31    12     4   ar
    32    11     6   ar
@<TRIPOS>MOLECULE
*****
 29 32 0 0 0
SMALL
GASTEIGER

@<TRIPOS>ATOM
      1 C          63.7862   85.8706   13.8104 C.3     1  UNL1        0.0844
      2 C          64.4034   87.0680   14.4702 C.3     1  UNL1        0.0243
      3 C          64.1521   88.4405   13.9198 C.3     1  UNL1        0.0450
      4 C          63.2834   88.6157   12.7095 C.ar    1  UNL1        0.0350
      5 C          62.6661   87.4183   12.0496 C.ar    1  UNL1        0.0099
      6 C          61.8603   87.8982   10.8789 C.ar    1  UNL1        0.0942
      7 N          61.0334   87.1678    9.8627 N.ar    1  UNL1       -0.2427
      8 C          60.3258   87.9313    8.7828 C.ar    1  UNL1        0.0989
      9 C          60.4451   89.4252    8.7191 C.ar    1  UNL1        0.0222
     10 C          61.2720   90.1556    9.7353 C.ar    1  UNL1        0.0203
     11 C          61.9796   89.3921   10.8152 C.ar    1  UNL1        0.0775
     12 N          62.8591   89.8355   11.9466 N.ar    1  UNL1       -0.3244
     13 C          62.9175   86.0458   12.6001 C.3     1  UNL1        0.0468
     14 C          64.6100   84.3355   15.7377 C.3     1  UNL1        0.1149
     15 N          64.0375   84.4980   14.3608 N.3     1  UNL1       -0.1551
     16 S          63.7164   83.2882   13.5344 S.O2    1  UNL1        0.0633
     17 O          64.9340   83.5383   12.6949 O.2     1  UNL1       -0.1528
     18 O          62.4987   83.0380   14.3739 O.2     1  UNL1       -0.1528
     19 C          63.3952   82.0783   12.7080 C.ar    1  UNL1        0.1223
     20 C          63.5662   82.1205   11.2184 C.ar    1  UNL1        0.0222
     21 C          63.2449   80.9105   10.3921 C.ar    1  UNL1        0.0310
     22 C          62.7527   79.6584   11.0552 C.ar    1  UNL1        0.1402
     23 F          62.4314   78.4484   10.2289 F       1  UNL1       -0.2042
     24 C          62.5816   79.6162   12.5449 C.ar    1  UNL1        0.0310
     25 C          62.9029   80.8262   13.3713 C.ar    1  UNL1        0.0222
     26 C          63.2464   91.2503   12.2599 C.3     1  UNL1        0.1475
     27 C          64.6541   91.7121   12.0257 C.2     1  UNL1        0.0732
     28 O          65.6489   91.6850   13.1480 O.co2   1  UNL1       -0.5472
     29 O          65.0671   92.2011   10.6691 O.co2   1  UNL1       -0.5472
@<TRIPOS>UNITY_ATOM_ATTR
28 1
charge -1
@<TRIPOS>BOND
     1    14    15    1
     2     1    15    1
     3     1     2    1
     4     2     3    1
     5     3     4    1
     6     4     5   ar
     7     5     6   ar
     8     6     7   ar
     9     7     8   ar
    10     8     9   ar
    11     9    10   ar
    12    10    11   ar
    13    11    12   ar
    14    12    26    1
    15    26    27    1
    16    27    28   ar
    17    27    29   ar
    18     5    13    1
    19    15    16    1
    20    16    17    2
    21    16    18    2
    22    16    19    1
    23    19    20   ar
    24    20    21   ar
    25    21    22   ar
    26    22    23    1
    27    22    24   ar
    28    24    25   ar
    29    13     1    1
    30    25    19   ar
    31    12     4   ar
    32    11     6   ar
@<TRIPOS>MOLECULE
*****
 29 32 0 0 0
SMALL
GASTEIGER

@<TRIPOS>ATOM
      1 C          64.0272   89.8031   13.0757 C.3     1  UNL1        0.0844
      2 C          63.1745   89.8754   11.8438 C.3     1  UNL1        0.0243
      3 C          62.5448   88.6303   11.2934 C.3     1  UNL1        0.0450
      4 C          62.7678   87.3127   11.9748 C.ar    1  UNL1        0.0350
      5 C          63.6205   87.2404   13.2067 C.ar    1  UNL1        0.0099
      6 C          63.6607   85.8108   13.6594 C.ar    1  UNL1        0.0942
      7 N          64.3442   85.1430   14.8155 N.ar    1  UNL1       -0.2427
      8 C          64.1998   83.6640   15.0195 C.ar    1  UNL1        0.0989
      9 C          63.3719   82.8528   14.0673 C.ar    1  UNL1        0.0222
     10 C          62.6884   83.5207   12.9112 C.ar    1  UNL1        0.0203
     11 C          62.8328   84.9997   12.7072 C.ar    1  UNL1        0.0775
     12 N          62.2810   85.9279   11.6661 N.ar    1  UNL1       -0.3244
     13 C          64.2502   88.4855   13.7572 C.3     1  UNL1        0.0468
     14 C          64.6199   91.3183   15.1013 C.3     1  UNL1        0.1149
     15 N          64.6570   91.0483   13.6262 N.3     1  UNL1       -0.1551
     16 S          65.3237   92.0233   12.7017 S.O2    1  UNL1        0.0633
     17 O          63.9850   92.4164   12.1509 O.2     1  UNL1       -0.1528
     18 O          66.6624   91.6302   13.2526 O.2     1  UNL1       -0.1528
     19 C          65.9904   92.9983   11.7772 C.ar    1  UNL1        0.1223
     20 C          66.7368   92.5015   10.5747 C.ar    1  UNL1        0.0222
     21 C          67.4036   93.4766    9.6503 C.ar    1  UNL1        0.0310
     22 C          67.3240   94.9485    9.9282 C.ar    1  UNL1        0.1402
     23 F          67.9908   95.9236    9.0038 F       1  UNL1       -0.2042
     24 C          66.5776   95.4453   11.1308 C.ar    1  UNL1        0.0310
     25 C          65.9108   94.4702   12.0553 C.ar    1  UNL1        0.0222
     26 C          61.3974   85.5395   10.5179 C.3     1  UNL1        0.1475
     27 C          61.7969   85.8847    9.1139 C.2     1  UNL1        0.0732
     28 O          63.1778   85.5606    8.6258 O.co2   1  UNL1       -0.5472
     29 O          60.8155   86.5540    8.1979 O.co2   1  UNL1       -0.5472
@<TRIPOS>UNITY_ATOM_ATTR
28 1
charge -1
@<TRIPOS>BOND
     1    14    15    1
     2     1    15    1
     3     1     2    1
     4     2     3    1
     5     3     4    1
     6     4     5   ar
     7     5     6   ar
     8     6     7   ar
     9     7     8   ar
    10     8     9   ar
    11     9    10   ar
    12    10    11   ar
    13    11    12   ar
    14    12    26    1
    15    26    27    1
    16    27    28   ar
    17    27    29   ar
    18     5    13    1
    19    15    16    1
    20    16    17    2
    21    16    18    2
    22    16    19    1
    23    19    20   ar
    24    20    21   ar
    25    21    22   ar
    26    22    23    1
    27    22    24   ar
    28    24    25   ar
    29    13     1    1
    30    25    19   ar
    31    12     4   ar
    32    11     6   ar
@<TRIPOS>MOLECULE
*****
 29 32 0 0 0
SMALL
GASTEIGER

@<TRIPOS>ATOM
      1 C          63.8626   87.6955   14.4204 C.3     1  UNL1        0.0844
      2 C          63.2897   87.9187   13.0522 C.3     1  UNL1        0.0243
      3 C          63.5692   89.1986   12.3217 C.3     1  UNL1        0.0450
      4 C          64.4216   90.2554   12.9595 C.ar    1  UNL1        0.0350
      5 C          64.9946   90.0322   14.3276 C.ar    1  UNL1        0.0099
      6 C          65.7932   91.2463   14.6995 C.ar    1  UNL1        0.0942
      7 N          66.5823   91.5910   15.9276 N.ar    1  UNL1       -0.2427
      8 C          67.2921   92.9094   16.0173 C.ar    1  UNL1        0.0989
      9 C          67.2128   93.8829   14.8790 C.ar    1  UNL1        0.0222
     10 C          66.4236   93.5382   13.6509 C.ar    1  UNL1        0.0203
     11 C          65.7138   92.2198   13.5612 C.ar    1  UNL1        0.0775
     12 N          64.8661   91.6074   12.4858 N.ar    1  UNL1       -0.3244
     13 C          64.7151   88.7522   15.0581 C.3     1  UNL1        0.0468
     14 C          63.4526   86.4180   16.6452 C.3     1  UNL1        0.1149
     15 N          63.5831   86.4155   15.1509 N.3     1  UNL1       -0.1551
     16 S          63.4342   85.1331   14.3871 S.O2    1  UNL1        0.0633
     17 O          61.9871   85.0692   14.7767 O.2     1  UNL1       -0.1528
     18 O          64.8814   85.1972   13.9976 O.2     1  UNL1       -0.1528
     19 C          63.2854   83.8508   13.6233 C.ar    1  UNL1        0.1223
     20 C          63.9333   83.6991   12.2790 C.ar    1  UNL1        0.0222
     21 C          63.7844   82.4167   11.5153 C.ar    1  UNL1        0.0310
     22 C          62.9877   81.2860   12.0957 C.ar    1  UNL1        0.1402
     23 F          62.8388   80.0037   11.3320 F       1  UNL1       -0.2042
     24 C          62.3398   81.4379   13.4401 C.ar    1  UNL1        0.0310
     25 C          62.4887   82.7203   14.2039 C.ar    1  UNL1        0.0222
     26 C          64.5232   92.2366   11.1680 C.3     1  UNL1        0.1475
     27 C          65.5088   93.1413   10.4898 C.2     1  UNL1        0.0732
     28 O          66.7624   92.5726    9.8939 O.co2   1  UNL1       -0.5472
     29 O          65.2408   94.6149   10.4073 O.co2   1  UNL1       -0.5472
@<TRIPOS>UNITY_ATOM_ATTR
28 1
charge -1
@<TRIPOS>BOND
     1    14    15    1
     2     1    15    1
     3     1     2    1
     4     2     3    1
     5     3     4    1
     6     4     5   ar
     7     5     6   ar
     8     6     7   ar
     9     7     8   ar
    10     8     9   ar
    11     9    10   ar
    12    10    11   ar
    13    11    12   ar
    14    12    26    1
    15    26    27    1
    16    27    28   ar
    17    27    29   ar
    18     5    13    1
    19    15    16    1
    20    16    17    2
    21    16    18    2
    22    16    19    1
    23    19    20   ar
    24    20    21   ar
    25    21    22   ar
    26    22    23    1
    27    22    24   ar
    28    24    25   ar
    29    13     1    1
    30    25    19   ar
    31    12     4   ar
    32    11     6   ar
