@<TRIPOS>MOLECULE
*****
 39 42 0 0 0
SMALL
GASTEIGER

@<TRIPOS>ATOM
      1 C          64.0274   86.7207   15.5795 C.ar    1  UNL1        0.0611
      2 C          63.2367   86.4410   16.8230 C.ar    1  UNL1        0.1037
      3 N          62.7644   87.7526   17.3767 N.ar    1  UNL1       -0.2269
      4 C          63.2631   88.8429   16.4753 C.ar    1  UNL1        0.1407
      5 N          63.1073   90.3341   16.5225 N.ar    1  UNL1       -0.3374
      6 C          63.7322   91.1874   15.4589 C.ar    1  UNL1        0.0735
      7 C          64.5128   90.5496   14.3481 C.ar    1  UNL1        0.0186
      8 C          64.6686   89.0585   14.3009 C.ar    1  UNL1        0.0047
      9 C          64.0438   88.2052   15.3645 C.ar    1  UNL1        0.0386
     10 H          62.5950   90.7526   17.2516 H       1  UNL1        0.1674
     11 C          65.1377   91.4031   13.2844 C.ar    1  UNL1        0.0206
     12 C          64.4397   91.5950   11.9707 C.ar    1  UNL1        0.0033
     13 C          65.0645   92.4485   10.9071 C.ar    1  UNL1        0.0238
     14 C          66.3874   93.1099   11.1572 C.ar    1  UNL1        0.1345
     15 N          67.0854   92.9179   12.4710 N.ar    1  UNL1       -0.2393
     16 C          66.4605   92.0645   13.5346 C.ar    1  UNL1        0.0990
     17 C          67.0122   93.9633   10.0937 C.2     1  UNL1        0.2636
     18 O          68.4700   93.8147    9.7731 O.2     1  UNL1       -0.2685
     19 N          66.1793   94.9653    9.3506 N.am    1  UNL1       -0.2979
     20 C          66.8041   95.8188    8.2870 C.3     1  UNL1        0.1110
     21 H          65.2225   95.0628    9.5610 H       1  UNL1        0.1498
     22 C          64.6862   85.6959   14.7044 C.2     1  UNL1        0.2015
     23 O          66.1592   85.4408   14.8264 O.2     1  UNL1       -0.2864
     24 C          62.4489   84.8620   11.5342 C.ar    1  UNL1        0.0920
     25 C          62.2432   83.3869   11.7126 C.ar    1  UNL1        0.0204
     26 C          62.8517   82.6815   12.8882 C.ar    1  UNL1        0.0312
     27 C          63.6661   83.4511   13.8855 C.ar    1  UNL1        0.1454
     28 F          64.2746   82.7457   15.0611 F       1  UNL1       -0.2040
     29 C          63.8718   84.9262   13.7071 C.ar    1  UNL1        0.0951
     30 C          63.2633   85.6316   12.5315 C.ar    1  UNL1        0.1598
     31 F          63.4691   87.1067   12.3531 F       1  UNL1       -0.2026
     32 N          61.8404   85.5674   10.3586 N.pl3   1  UNL1       -0.2166
     33 H          61.6193   85.0632    9.5424 H       1  UNL1        0.1734
     34 S          61.5685   87.0410   10.4266 S.O2    1  UNL1        0.0540
     35 O          62.5372   87.2714    9.3048 O.2     1  UNL1       -0.1545
     36 O          60.5999   86.8105   11.5485 O.2     1  UNL1       -0.1545
     37 C          61.2967   88.5145   10.4947 C.3     1  UNL1        0.1724
     38 C          59.7392   90.4570   11.2372 C.3     1  UNL1        0.0019
     39 C          60.1955   89.0344   11.3706 C.3     1  UNL1        0.0273
@<TRIPOS>BOND
     1    38    39    1
     2    39    37    1
     3    37    34    1
     4    34    35    2
     5    34    36    2
     6    34    32    1
     7    32    24    1
     8    24    25   ar
     9    25    26   ar
    10    26    27   ar
    11    27    28    1
    12    27    29   ar
    13    29    22    1
    14    22    23    2
    15    22     1    1
    16     1     2   ar
    17     2     3   ar
    18     3     4   ar
    19     4     5   ar
    20     5     6   ar
    21     6     7   ar
    22     7    11    1
    23    11    12   ar
    24    12    13   ar
    25    13    14   ar
    26    14    17    1
    27    17    18    2
    28    17    19   am
    29    19    20    1
    30    14    15   ar
    31    15    16   ar
    32     7     8   ar
    33     8     9   ar
    34    29    30   ar
    35    30    31    1
    36    30    24   ar
    37     9     1   ar
    38     9     4    1
    39    16    11   ar
    40    32    33    1
    41     5    10    1
    42    19    21    1
@<TRIPOS>MOLECULE
*****
 39 42 0 0 0
SMALL
GASTEIGER

@<TRIPOS>ATOM
      1 C          61.5951   86.3904    9.3803 C.ar    1  UNL1        0.0611
      2 C          60.2645   86.2751    8.6976 C.ar    1  UNL1        0.1037
      3 N          59.4698   87.5057    9.0204 N.ar    1  UNL1       -0.2269
      4 C          60.3093   88.3814    9.9026 C.ar    1  UNL1        0.1407
      5 N          60.0473   89.7175   10.5322 N.ar    1  UNL1       -0.3374
      6 C          61.0989   90.3642   11.3841 C.ar    1  UNL1        0.0735
      7 C          62.4124   89.6749   11.6066 C.ar    1  UNL1        0.0186
      8 C          62.6744   88.3388   10.9771 C.ar    1  UNL1        0.0047
      9 C          61.6228   87.6921   10.1251 C.ar    1  UNL1        0.0386
     10 H          59.1852   90.1699   10.3861 H       1  UNL1        0.1674
     11 C          63.4640   90.3217   12.4587 C.ar    1  UNL1        0.0206
     12 C          63.9261   89.6506   13.7180 C.ar    1  UNL1        0.0033
     13 C          64.9777   90.2974   14.5701 C.ar    1  UNL1        0.0238
     14 C          65.5671   91.6152   14.1627 C.ar    1  UNL1        0.1345
     15 N          65.1049   92.2863   12.9032 N.ar    1  UNL1       -0.2393
     16 C          64.0533   91.6395   12.0513 C.ar    1  UNL1        0.0990
     17 C          66.6186   92.2620   15.0147 C.2     1  UNL1        0.2636
     18 O          66.2995   92.6635   16.4243 O.2     1  UNL1       -0.2685
     19 N          67.9893   92.5074   14.4570 N.am    1  UNL1       -0.2979
     20 C          69.0409   93.1542   15.3090 C.3     1  UNL1        0.1110
     21 H          68.1987   92.2439   13.5318 H       1  UNL1        0.1498
     22 C          62.7035   85.3810    9.3276 C.2     1  UNL1        0.2015
     23 O          63.4774   85.1825    8.0582 O.2     1  UNL1       -0.2864
     24 C          62.7254   84.0785   13.0764 C.ar    1  UNL1        0.0920
     25 C          63.7070   82.9486   12.9782 C.ar    1  UNL1        0.0204
     26 C          64.3540   82.6294   11.6631 C.ar    1  UNL1        0.0312
     27 C          64.0196   83.4402   10.4463 C.ar    1  UNL1        0.1454
     28 F          64.6667   83.1211    9.1312 F       1  UNL1       -0.2040
     29 C          63.0380   84.5702   10.5445 C.ar    1  UNL1        0.0951
     30 C          62.3909   84.8893   11.8596 C.ar    1  UNL1        0.1598
     31 F          61.4093   86.0193   11.9578 F       1  UNL1       -0.2026
     32 N          62.0783   84.3977   14.3915 N.pl3   1  UNL1       -0.2166
     33 H          61.1571   84.1007   14.5718 H       1  UNL1        0.1734
     34 S          62.8347   85.1692   15.4319 S.O2    1  UNL1        0.0540
     35 O          62.1605   84.3750   16.5111 O.2     1  UNL1       -0.1545
     36 O          63.5089   85.9635   14.3527 O.2     1  UNL1       -0.1545
     37 C          63.5912   85.9409   16.4722 C.3     1  UNL1        0.1724
     38 C          63.0467   88.3943   17.1316 C.3     1  UNL1        0.0019
     39 C          62.8710   86.9208   17.3504 C.3     1  UNL1        0.0273
@<TRIPOS>BOND
     1    38    39    1
     2    39    37    1
     3    37    34    1
     4    34    35    2
     5    34    36    2
     6    34    32    1
     7    32    24    1
     8    24    25   ar
     9    25    26   ar
    10    26    27   ar
    11    27    28    1
    12    27    29   ar
    13    29    22    1
    14    22    23    2
    15    22     1    1
    16     1     2   ar
    17     2     3   ar
    18     3     4   ar
    19     4     5   ar
    20     5     6   ar
    21     6     7   ar
    22     7    11    1
    23    11    12   ar
    24    12    13   ar
    25    13    14   ar
    26    14    17    1
    27    17    18    2
    28    17    19   am
    29    19    20    1
    30    14    15   ar
    31    15    16   ar
    32     7     8   ar
    33     8     9   ar
    34    29    30   ar
    35    30    31    1
    36    30    24   ar
    37     9     1   ar
    38     9     4    1
    39    16    11   ar
    40    32    33    1
    41     5    10    1
    42    19    21    1
@<TRIPOS>MOLECULE
*****
 39 42 0 0 0
SMALL
GASTEIGER

@<TRIPOS>ATOM
      1 C          63.4470   84.0634   13.8786 C.ar    1  UNL1        0.0611
      2 C          62.8876   83.1539   14.9320 C.ar    1  UNL1        0.1037
      3 N          62.6164   83.9755   16.1573 N.ar    1  UNL1       -0.2269
      4 C          63.0082   85.3928   15.8612 C.ar    1  UNL1        0.1407
      5 N          62.9638   86.6409   16.6920 N.ar    1  UNL1       -0.3374
      6 C          63.4327   87.9433   16.1144 C.ar    1  UNL1        0.0735
      7 C          63.9461   87.9977   14.7060 C.ar    1  UNL1        0.0186
      8 C          63.9905   86.7496   13.8752 C.ar    1  UNL1        0.0047
      9 C          63.5215   85.4472   14.4528 C.ar    1  UNL1        0.0386
     10 H          62.6268   86.6052   17.6163 H       1  UNL1        0.1674
     11 C          64.4151   89.3003   14.1285 C.ar    1  UNL1        0.0206
     12 C          65.5405   90.0477   14.7801 C.ar    1  UNL1        0.0033
     13 C          66.0095   91.3503   14.2026 C.ar    1  UNL1        0.0238
     14 C          65.3530   91.9053   12.9734 C.ar    1  UNL1        0.1345
     15 N          64.2275   91.1578   12.3217 N.ar    1  UNL1       -0.2393
     16 C          63.7586   89.8553   12.8993 C.ar    1  UNL1        0.0990
     17 C          65.8219   93.2078   12.3958 C.2     1  UNL1        0.2636
     18 O          66.8432   94.0280   13.1268 O.2     1  UNL1       -0.2685
     19 N          65.2696   93.6900   11.0873 N.am    1  UNL1       -0.2979
     20 C          65.7385   94.9926   10.5096 C.3     1  UNL1        0.1110
     21 H          64.5993   93.1517   10.6075 H       1  UNL1        0.1498
     22 C          63.8595   83.6601   12.4939 C.2     1  UNL1        0.2015
     23 O          64.8705   82.5692   12.3004 O.2     1  UNL1       -0.2864
     24 C          61.5239   85.9954   10.2934 C.ar    1  UNL1        0.0920
     25 C          62.0636   85.7232    8.9206 C.ar    1  UNL1        0.0204
     26 C          63.2019   84.7634    8.7389 C.ar    1  UNL1        0.0312
     27 C          63.8005   84.0757    9.9299 C.ar    1  UNL1        0.1454
     28 F          64.9388   83.1158    9.7482 F       1  UNL1       -0.2040
     29 C          63.2608   84.3479   11.3028 C.ar    1  UNL1        0.0951
     30 C          62.1226   85.3077   11.4845 C.ar    1  UNL1        0.1598
     31 F          61.5829   85.5798   12.8574 F       1  UNL1       -0.2026
     32 N          60.3857   86.9552   10.4752 N.pl3   1  UNL1       -0.2166
     33 H          59.7867   86.8673   11.2516 H       1  UNL1        0.1734
     34 S          60.1599   88.0491    9.4739 S.O2    1  UNL1        0.0540
     35 O          59.1770   87.1804    8.7464 O.2     1  UNL1       -0.1545
     36 O          61.1428   88.9178   10.2014 O.2     1  UNL1       -0.1545
     37 C          59.9342   89.1430    8.4728 C.3     1  UNL1        0.1724
     38 C          59.1114   89.9137    6.1319 C.3     1  UNL1        0.0019
     39 C          59.4057   88.8135    7.1082 C.3     1  UNL1        0.0273
@<TRIPOS>BOND
     1    38    39    1
     2    39    37    1
     3    37    34    1
     4    34    35    2
     5    34    36    2
     6    34    32    1
     7    32    24    1
     8    24    25   ar
     9    25    26   ar
    10    26    27   ar
    11    27    28    1
    12    27    29   ar
    13    29    22    1
    14    22    23    2
    15    22     1    1
    16     1     2   ar
    17     2     3   ar
    18     3     4   ar
    19     4     5   ar
    20     5     6   ar
    21     6     7   ar
    22     7    11    1
    23    11    12   ar
    24    12    13   ar
    25    13    14   ar
    26    14    17    1
    27    17    18    2
    28    17    19   am
    29    19    20    1
    30    14    15   ar
    31    15    16   ar
    32     7     8   ar
    33     8     9   ar
    34    29    30   ar
    35    30    31    1
    36    30    24   ar
    37     9     1   ar
    38     9     4    1
    39    16    11   ar
    40    32    33    1
    41     5    10    1
    42    19    21    1
@<TRIPOS>MOLECULE
*****
 39 42 0 0 0
SMALL
GASTEIGER

@<TRIPOS>ATOM
      1 C          61.3813   87.1243   10.5516 C.ar    1  UNL1        0.0611
      2 C          60.4763   87.1034    9.3556 C.ar    1  UNL1        0.1037
      3 N          60.5173   88.4612    8.7195 N.ar    1  UNL1       -0.2269
      4 C          61.4477   89.3213    9.5224 C.ar    1  UNL1        0.1407
      5 N          61.8777   90.7501    9.3687 N.ar    1  UNL1       -0.3374
      6 C          62.8416   91.3526   10.3474 C.ar    1  UNL1        0.0735
      7 C          63.3756   90.5263   11.4797 C.ar    1  UNL1        0.0186
      8 C          62.9456   89.0975   11.6334 C.ar    1  UNL1        0.0047
      9 C          61.9817   88.4950   10.6547 C.ar    1  UNL1        0.0386
     10 H          61.5272   91.2924    8.6256 H       1  UNL1        0.1674
     11 C          64.3395   91.1289   12.4584 C.ar    1  UNL1        0.0206
     12 C          64.5112   90.5156   13.8165 C.ar    1  UNL1        0.0033
     13 C          65.4751   91.1182   14.7951 C.ar    1  UNL1        0.0238
     14 C          66.2674   92.3340   14.4157 C.ar    1  UNL1        0.1345
     15 N          66.0957   92.9473   13.0575 N.ar    1  UNL1       -0.2393
     16 C          65.1318   92.3447   12.0789 C.ar    1  UNL1        0.0990
     17 C          67.2314   92.9366   15.3943 C.2     1  UNL1        0.2636
     18 O          66.8368   93.0995   16.8322 O.2     1  UNL1       -0.2685
     19 N          68.5899   93.3763   14.9349 N.am    1  UNL1       -0.2979
     20 C          69.5539   93.9789   15.9135 C.3     1  UNL1        0.1110
     21 H          68.8488   93.2694   13.9911 H       1  UNL1        0.1498
     22 C          61.6404   85.9760   11.4813 C.2     1  UNL1        0.2015
     23 O          60.9956   85.9469   12.8352 O.2     1  UNL1       -0.2864
     24 C          63.7634   82.6246   11.5880 C.ar    1  UNL1        0.0920
     25 C          64.3528   82.6184   10.2086 C.ar    1  UNL1        0.0204
     26 C          64.0381   83.7314    9.2535 C.ar    1  UNL1        0.0312
     27 C          63.1340   84.8506    9.6777 C.ar    1  UNL1        0.1454
     28 F          62.8193   85.9636    8.7226 F       1  UNL1       -0.2040
     29 C          62.5446   84.8568   11.0570 C.ar    1  UNL1        0.0951
     30 C          62.8593   83.7438   12.0121 C.ar    1  UNL1        0.1598
     31 F          62.2699   83.7501   13.3915 F       1  UNL1       -0.2026
     32 N          64.0781   81.5116   12.5430 N.pl3   1  UNL1       -0.2166
     33 H          65.0149   81.2761   12.7330 H       1  UNL1        0.1734
     34 S          62.9654   80.7574   13.2086 S.O2    1  UNL1        0.0540
     35 O          62.6052   80.1294   11.8949 O.2     1  UNL1       -0.1545
     36 O          63.3256   81.3853   14.5224 O.2     1  UNL1       -0.1545
     37 C          61.8527   80.0032   13.8743 C.3     1  UNL1        0.1724
     38 C          59.2920   79.9543   14.3107 C.3     1  UNL1        0.0019
     39 C          60.5849   80.7122   14.2485 C.3     1  UNL1        0.0273
@<TRIPOS>BOND
     1    38    39    1
     2    39    37    1
     3    37    34    1
     4    34    35    2
     5    34    36    2
     6    34    32    1
     7    32    24    1
     8    24    25   ar
     9    25    26   ar
    10    26    27   ar
    11    27    28    1
    12    27    29   ar
    13    29    22    1
    14    22    23    2
    15    22     1    1
    16     1     2   ar
    17     2     3   ar
    18     3     4   ar
    19     4     5   ar
    20     5     6   ar
    21     6     7   ar
    22     7    11    1
    23    11    12   ar
    24    12    13   ar
    25    13    14   ar
    26    14    17    1
    27    17    18    2
    28    17    19   am
    29    19    20    1
    30    14    15   ar
    31    15    16   ar
    32     7     8   ar
    33     8     9   ar
    34    29    30   ar
    35    30    31    1
    36    30    24   ar
    37     9     1   ar
    38     9     4    1
    39    16    11   ar
    40    32    33    1
    41     5    10    1
    42    19    21    1
@<TRIPOS>MOLECULE
*****
 39 42 0 0 0
SMALL
GASTEIGER

@<TRIPOS>ATOM
      1 C          61.8070   86.2995   10.4357 C.ar    1  UNL1        0.0611
      2 C          60.5428   86.0011    9.6856 C.ar    1  UNL1        0.1037
      3 N          59.8311   87.2989    9.4421 N.ar    1  UNL1       -0.2269
      4 C          60.6554   88.3993   10.0417 C.ar    1  UNL1        0.1407
      5 N          60.4518   89.8839   10.1079 N.ar    1  UNL1       -0.3374
      6 C          61.4694   90.7509   10.7881 C.ar    1  UNL1        0.0735
      7 C          62.6906   90.1332   11.4022 C.ar    1  UNL1        0.0186
      8 C          62.8942   88.6486   11.3361 C.ar    1  UNL1        0.0047
      9 C          61.8766   87.7817   10.6558 C.ar    1  UNL1        0.0386
     10 H          59.6503   90.2893    9.7048 H       1  UNL1        0.1674
     11 C          63.7083   91.0003   12.0825 C.ar    1  UNL1        0.0206
     12 C          64.5603   91.9326   11.2734 C.ar    1  UNL1        0.0033
     13 C          65.5779   92.7997   11.9537 C.ar    1  UNL1        0.0238
     14 C          65.7435   92.7343   13.4431 C.ar    1  UNL1        0.1345
     15 N          64.8914   91.8019   14.2522 N.ar    1  UNL1       -0.2393
     16 C          63.8738   90.9349   13.5719 C.ar    1  UNL1        0.0990
     17 C          66.7610   93.6013   14.1234 C.2     1  UNL1        0.2636
     18 O          66.8669   95.0545   13.7669 O.2     1  UNL1       -0.2685
     19 N          67.6728   93.0151   15.1602 N.am    1  UNL1       -0.2979
     20 C          68.6904   93.8821   15.8406 C.3     1  UNL1        0.1110
     21 H          67.6033   92.0614   15.3942 H       1  UNL1        0.1498
     22 C          62.8232   85.2926   10.8866 C.2     1  UNL1        0.2015
     23 O          63.7258   84.6371    9.8839 O.2     1  UNL1       -0.2864
     24 C          62.5995   83.2431   14.2779 C.ar    1  UNL1        0.0920
     25 C          63.1643   84.2380   15.2481 C.ar    1  UNL1        0.0204
     26 C          63.6154   85.5843   14.7645 C.ar    1  UNL1        0.0312
     27 C          63.5017   85.9359   13.3107 C.ar    1  UNL1        0.1454
     28 F          63.9528   87.2822   12.8271 F       1  UNL1       -0.2040
     29 C          62.9369   84.9410   12.3405 C.ar    1  UNL1        0.0951
     30 C          62.4858   83.5947   12.8241 C.ar    1  UNL1        0.1598
     31 F          61.9210   82.5999   11.8538 F       1  UNL1       -0.2026
     32 N          62.1484   81.8968   14.7615 N.pl3   1  UNL1       -0.2166
     33 H          61.7798   81.7979   15.6690 H       1  UNL1        0.1734
     34 S          62.2589   80.7013   13.8623 S.O2    1  UNL1        0.0540
     35 O          63.7540   80.8189   13.8896 O.2     1  UNL1       -0.1545
     36 O          60.7638   80.5836   13.8350 O.2     1  UNL1       -0.1545
     37 C          62.3693   79.5057   12.9632 C.3     1  UNL1        0.1724
     38 C          62.7379   78.5095   10.5922 C.3     1  UNL1        0.0019
     39 C          62.7714   79.6807   11.5287 C.3     1  UNL1        0.0273
@<TRIPOS>BOND
     1    38    39    1
     2    39    37    1
     3    37    34    1
     4    34    35    2
     5    34    36    2
     6    34    32    1
     7    32    24    1
     8    24    25   ar
     9    25    26   ar
    10    26    27   ar
    11    27    28    1
    12    27    29   ar
    13    29    22    1
    14    22    23    2
    15    22     1    1
    16     1     2   ar
    17     2     3   ar
    18     3     4   ar
    19     4     5   ar
    20     5     6   ar
    21     6     7   ar
    22     7    11    1
    23    11    12   ar
    24    12    13   ar
    25    13    14   ar
    26    14    17    1
    27    17    18    2
    28    17    19   am
    29    19    20    1
    30    14    15   ar
    31    15    16   ar
    32     7     8   ar
    33     8     9   ar
    34    29    30   ar
    35    30    31    1
    36    30    24   ar
    37     9     1   ar
    38     9     4    1
    39    16    11   ar
    40    32    33    1
    41     5    10    1
    42    19    21    1
@<TRIPOS>MOLECULE
*****
 39 42 0 0 0
SMALL
GASTEIGER

@<TRIPOS>ATOM
      1 C          64.6444   90.8643   15.0136 C.ar    1  UNL1        0.0611
      2 C          64.3445   91.9472   16.0073 C.ar    1  UNL1        0.1037
      3 N          63.6331   91.3238   17.1714 N.ar    1  UNL1       -0.2269
      4 C          63.4933   89.8557   16.8973 C.ar    1  UNL1        0.1407
      5 N          62.8777   88.7409   17.6897 N.ar    1  UNL1       -0.3374
      6 C          62.8871   87.3420   17.1485 C.ar    1  UNL1        0.0735
      7 C          63.5121   87.0580   15.8148 C.ar    1  UNL1        0.0186
      8 C          64.1278   88.1728   15.0224 C.ar    1  UNL1        0.0047
      9 C          64.1184   89.5717   15.5636 C.ar    1  UNL1        0.0386
     10 H          62.4675   88.9273   18.5650 H       1  UNL1        0.1674
     11 C          63.5215   85.6590   15.2736 C.ar    1  UNL1        0.0206
     12 C          64.5986   85.2303   14.3218 C.ar    1  UNL1        0.0033
     13 C          64.6080   83.8313   13.7806 C.ar    1  UNL1        0.0238
     14 C          63.5402   82.8611   14.1912 C.ar    1  UNL1        0.1345
     15 N          62.4631   83.2899   15.1430 N.ar    1  UNL1       -0.2393
     16 C          62.4537   84.6888   15.6842 C.ar    1  UNL1        0.0990
     17 C          63.5496   81.4622   13.6500 C.2     1  UNL1        0.2636
     18 O          64.2768   80.3774   14.3878 O.2     1  UNL1       -0.2685
     19 N          62.8316   81.1480   12.3710 N.am    1  UNL1       -0.2979
     20 C          62.8409   79.7491   11.8298 C.3     1  UNL1        0.1110
     21 H          62.3543   81.8600   11.8868 H       1  UNL1        0.1498
     22 C          65.3471   91.0427   13.7004 C.2     1  UNL1        0.2015
     23 O          66.8459   91.0664   13.6488 O.2     1  UNL1       -0.2864
     24 C          62.4550   90.6199   11.0156 C.ar    1  UNL1        0.0920
     25 C          62.9580   91.5064    9.9151 C.ar    1  UNL1        0.0204
     26 C          64.2574   92.2383   10.0764 C.ar    1  UNL1        0.0312
     27 C          65.0537   92.0837   11.3381 C.ar    1  UNL1        0.1454
     28 F          66.3531   92.8156   11.4993 F       1  UNL1       -0.2040
     29 C          64.5507   91.1972   12.4386 C.ar    1  UNL1        0.0951
     30 C          63.2514   90.4653   12.2773 C.ar    1  UNL1        0.1598
     31 F          62.7484   89.5788   13.3779 F       1  UNL1       -0.2026
     32 N          61.1557   89.8880   10.8544 N.pl3   1  UNL1       -0.2166
     33 H          60.3180   90.3919   10.7378 H       1  UNL1        0.1734
     34 S          61.1326   88.3882   10.8708 S.O2    1  UNL1        0.0540
     35 O          60.1340   88.4158   11.9897 O.2     1  UNL1       -0.1545
     36 O          62.1312   88.3607    9.7519 O.2     1  UNL1       -0.1545
     37 C          61.1096   86.8885   10.8871 C.3     1  UNL1        0.1724
     38 C          62.5848   84.7514   10.9713 C.3     1  UNL1        0.0019
     39 C          62.2612   86.1271   11.4740 C.3     1  UNL1        0.0273
@<TRIPOS>BOND
     1    38    39    1
     2    39    37    1
     3    37    34    1
     4    34    35    2
     5    34    36    2
     6    34    32    1
     7    32    24    1
     8    24    25   ar
     9    25    26   ar
    10    26    27   ar
    11    27    28    1
    12    27    29   ar
    13    29    22    1
    14    22    23    2
    15    22     1    1
    16     1     2   ar
    17     2     3   ar
    18     3     4   ar
    19     4     5   ar
    20     5     6   ar
    21     6     7   ar
    22     7    11    1
    23    11    12   ar
    24    12    13   ar
    25    13    14   ar
    26    14    17    1
    27    17    18    2
    28    17    19   am
    29    19    20    1
    30    14    15   ar
    31    15    16   ar
    32     7     8   ar
    33     8     9   ar
    34    29    30   ar
    35    30    31    1
    36    30    24   ar
    37     9     1   ar
    38     9     4    1
    39    16    11   ar
    40    32    33    1
    41     5    10    1
    42    19    21    1
