@<TRIPOS>MOLECULE
*****
 37 42 0 0 0
SMALL
GASTEIGER

@<TRIPOS>ATOM
      1 C          60.6865   88.7622    9.8816 C.3     1  UNL1        0.1455
      2 C          59.9566   89.5864    8.8628 C.3     1  UNL1        0.1634
      3 O          59.5105   88.9627    7.5736 O.3     1  UNL1       -0.3507
      4 C          59.7944   87.5147    7.3033 C.3     1  UNL1        0.1598
      5 C          60.5243   86.6907    8.3222 C.3     1  UNL1        0.1093
      6 N          60.9703   87.3144    9.6114 N.3     1  UNL1       -0.1499
      7 C          61.1325   89.3861   11.1709 C.3     1  UNL1        0.1550
      8 C          59.8052   89.5659   11.8461 C.3     1  UNL1        0.0453
      9 C          61.0637   89.9971   12.5391 C.3     1  UNL1        0.0453
     10 O          62.6147   89.4229   10.9434 O.3     1  UNL1       -0.4403
     11 O          63.1245   91.5810    9.5896 O.2     1  UNL1       -0.2262
     12 C          63.3214   90.7398   10.8158 C.2     1  UNL1        0.4047
     13 N          64.2250   91.2156   11.9145 N.am    1  UNL1       -0.2449
     14 C          64.5179   90.4872   13.1927 C.3     1  UNL1        0.1126
     15 C          65.4682   91.3247   13.9961 C.3     1  UNL1        0.0793
     16 C          65.7626   92.5707   13.2145 C.3     1  UNL1        0.0390
     17 C          64.9942   92.5032   11.9281 C.3     1  UNL1        0.0959
     18 C          65.9445   93.3407   12.7315 C.3     1  UNL1        0.0923
     19 N          66.2375   92.6123   14.0097 N.3     1  UNL1       -0.2688
     20 C          67.1410   93.0880   15.1084 C.3     1  UNL1        0.1043
     21 C          68.5958   92.7228   15.0940 C.3     1  UNL1        0.1544
     22 O          69.1919   92.0645   13.8852 O.3     1  UNL1       -0.3805
     23 H          68.8022   91.1835   13.7717 H       1  UNL1        0.2105
     24 S          61.7002   86.4902   10.6302 S.O2    1  UNL1        0.0635
     25 O          62.8821   86.4005    9.7109 O.2     1  UNL1       -0.1528
     26 O          60.8271   86.3892   11.6548 O.2     1  UNL1       -0.1528
     27 C          62.4301   85.6661   11.6491 C.ar    1  UNL1        0.1223
     28 C          63.1136   86.3349   12.8047 C.ar    1  UNL1        0.0208
     29 C          63.8434   85.5107   13.8236 C.ar    1  UNL1        0.0128
     30 C          63.8897   84.0177   13.6869 C.ar    1  UNL1        0.0578
     31 CL         64.6195   83.1935   14.7056 Cl      1  UNL1       -0.0822
     32 C          63.2062   83.3489   12.5312 C.ar    1  UNL1        0.0128
     33 C          62.4764   84.1730   11.5123 C.ar    1  UNL1        0.0208
     34 C          60.8082   85.2427    8.0519 C.3     1  UNL1        0.0203
     35 C          61.5879   84.8461    6.8335 C.3     1  UNL1        0.0015
     36 C          62.8822   84.8031    6.0765 C.3     1  UNL1        0.0000
     37 C          61.6442   84.2021    5.4799 C.3     1  UNL1        0.0000
@<TRIPOS>BOND
     1    11    12    2
     2    12    10    1
     3    10     7    1
     4     1     7    1
     5     1     2    1
     6     2     3    1
     7     3     4    1
     8     4     5    1
     9     5    34    1
    10    34    35    1
    11    35    36    1
    12    36    37    1
    13     5     6    1
    14     6    24    1
    15    24    25    2
    16    24    26    2
    17    24    27    1
    18    27    28   ar
    19    28    29   ar
    20    29    30   ar
    21    30    31    1
    22    30    32   ar
    23    32    33   ar
    24     7     8    1
    25     8     9    1
    26    12    13   am
    27    13    14    1
    28    14    15    1
    29    15    16    1
    30    16    17    1
    31    17    18    1
    32    18    19    1
    33    19    20    1
    34    20    21    1
    35    21    22    1
    36     9     7    1
    37    17    13    1
    38     6     1    1
    39    33    27   ar
    40    19    15    1
    41    37    35    1
    42    22    23    1
@<TRIPOS>MOLECULE
*****
 37 42 0 0 0
SMALL
GASTEIGER

@<TRIPOS>ATOM
      1 C          63.3959   88.2709   13.1260 C.3     1  UNL1        0.1455
      2 C          64.2238   87.8985   14.3201 C.3     1  UNL1        0.1634
      3 O          64.4769   86.4542   14.6362 O.3     1  UNL1       -0.3507
      4 C          63.9021   85.3824   13.7582 C.3     1  UNL1        0.1598
      5 C          63.0742   85.7549   12.5642 C.3     1  UNL1        0.1093
      6 N          62.8211   87.1992   12.2481 N.3     1  UNL1       -0.1499
      7 C          63.1428   89.7153   12.8099 C.3     1  UNL1        0.1550
      8 C          61.6502   89.7558   12.9544 C.3     1  UNL1        0.0453
      9 C          62.4017   90.9995   12.5821 C.3     1  UNL1        0.0453
     10 O          64.5473   90.1764   12.5557 O.3     1  UNL1       -0.4403
     11 O          65.0421   91.6985   14.6024 O.2     1  UNL1       -0.2262
     12 C          65.0207   91.4840   13.1179 C.2     1  UNL1        0.4047
     13 N          65.4728   92.5772   12.1956 N.am    1  UNL1       -0.2449
     14 C          65.5074   92.5088   10.6976 C.3     1  UNL1        0.1126
     15 C          66.0256   93.8200   10.1856 C.3     1  UNL1        0.0793
     16 C          66.3113   94.6988   11.3672 C.3     1  UNL1        0.0390
     17 C          65.9696   93.9306   12.6094 C.3     1  UNL1        0.0959
     18 C          66.4878   95.2419   12.0974 C.3     1  UNL1        0.0923
     19 N          66.5224   95.1734   10.5993 N.3     1  UNL1       -0.2688
     20 C          66.9745   96.2666    9.6770 C.3     1  UNL1        0.1043
     21 C          67.1111   95.9993    8.2074 C.3     1  UNL1        0.1544
     22 O          65.9036   96.0561    7.3194 O.3     1  UNL1       -0.3805
     23 H          65.2926   95.3416    7.5582 H       1  UNL1        0.2105
     24 S          61.9932   87.5716   11.0540 S.O2    1  UNL1        0.0635
     25 O          60.7616   87.0789   11.7542 O.2     1  UNL1       -0.1528
     26 O          62.8884   88.0830   10.1825 O.2     1  UNL1       -0.1528
     27 C          61.1653   87.9441    9.8598 C.ar    1  UNL1        0.1223
     28 C          60.5344   86.8726    9.0208 C.ar    1  UNL1        0.0208
     29 C          59.7066   87.2452    7.8267 C.ar    1  UNL1        0.0128
     30 C          59.5097   88.6891    7.4715 C.ar    1  UNL1        0.0578
     31 CL         58.6819   89.0616    6.2775 Cl      1  UNL1       -0.0822
     32 C          60.1406   89.7605    8.3106 C.ar    1  UNL1        0.0128
     33 C          60.9684   89.3881    9.5047 C.ar    1  UNL1        0.0208
     34 C          62.4994   84.6831   11.6862 C.3     1  UNL1        0.0203
     35 C          63.3880   83.6063   11.1377 C.3     1  UNL1        0.0015
     36 C          64.2366   83.0630   10.0265 C.3     1  UNL1        0.0000
     37 C          64.0786   82.2844   11.2988 C.3     1  UNL1        0.0000
@<TRIPOS>BOND
     1    11    12    2
     2    12    10    1
     3    10     7    1
     4     1     7    1
     5     1     2    1
     6     2     3    1
     7     3     4    1
     8     4     5    1
     9     5    34    1
    10    34    35    1
    11    35    36    1
    12    36    37    1
    13     5     6    1
    14     6    24    1
    15    24    25    2
    16    24    26    2
    17    24    27    1
    18    27    28   ar
    19    28    29   ar
    20    29    30   ar
    21    30    31    1
    22    30    32   ar
    23    32    33   ar
    24     7     8    1
    25     8     9    1
    26    12    13   am
    27    13    14    1
    28    14    15    1
    29    15    16    1
    30    16    17    1
    31    17    18    1
    32    18    19    1
    33    19    20    1
    34    20    21    1
    35    21    22    1
    36     9     7    1
    37    17    13    1
    38     6     1    1
    39    33    27   ar
    40    19    15    1
    41    37    35    1
    42    22    23    1
@<TRIPOS>MOLECULE
*****
 37 42 0 0 0
SMALL
GASTEIGER

@<TRIPOS>ATOM
      1 C          62.9347   90.5416   11.5032 C.3     1  UNL1        0.1455
      2 C          63.1414   91.3742   10.2727 C.3     1  UNL1        0.1634
      3 O          64.3730   92.2198   10.1375 O.3     1  UNL1       -0.3507
      4 C          65.3978   92.2327   11.2328 C.3     1  UNL1        0.1598
      5 C          65.1910   91.4001   12.4633 C.3     1  UNL1        0.1093
      6 N          63.9595   90.5545   12.5984 N.3     1  UNL1       -0.1499
      7 C          61.7031   89.6960   11.6383 C.3     1  UNL1        0.1550
      8 C          60.6507   90.7157   11.3174 C.3     1  UNL1        0.0453
      9 C          60.2545   89.3066   11.6457 C.3     1  UNL1        0.0453
     10 O          62.3278   88.3828   12.0062 O.3     1  UNL1       -0.4403
     11 O          62.3559   87.6283    9.5202 O.2     1  UNL1       -0.2262
     12 C          62.4467   87.2953   10.9800 C.2     1  UNL1        0.4047
     13 N          62.6563   85.8747   11.4135 N.am    1  UNL1       -0.2449
     14 C          62.7664   85.3922   12.8295 C.3     1  UNL1        0.1126
     15 C          62.9708   83.9065   12.7983 C.3     1  UNL1        0.0793
     16 C          62.9871   83.4708   11.3631 C.3     1  UNL1        0.0390
     17 C          62.7927   84.6873   10.5073 C.3     1  UNL1        0.0959
     18 C          62.9971   83.2016   10.4761 C.3     1  UNL1        0.0923
     19 N          63.1072   82.7191   11.8921 N.3     1  UNL1       -0.2688
     20 C          63.3169   81.2985   12.3256 C.3     1  UNL1        0.1043
     21 C          62.3926   80.6768   13.3303 C.3     1  UNL1        0.1544
     22 O          62.2927   81.2500   14.7128 O.3     1  UNL1       -0.3805
     23 H          63.1377   81.1310   15.1741 H       1  UNL1        0.2105
     24 S          63.7528   89.7219   13.8289 S.O2    1  UNL1        0.0635
     25 O          63.0507   90.8715   14.4889 O.2     1  UNL1       -0.1528
     26 O          64.3209   88.5368   13.5205 O.2     1  UNL1       -0.1528
     27 C          63.5461   88.8893   15.0594 C.ar    1  UNL1        0.1223
     28 C          63.0079   89.5193   16.3097 C.ar    1  UNL1        0.0208
     29 C          62.8012   88.6865   17.5401 C.ar    1  UNL1        0.0128
     30 C          63.1328   87.2238   17.5202 C.ar    1  UNL1        0.0578
     31 CL         62.9262   86.3911   18.7505 Cl      1  UNL1       -0.0822
     32 C          63.6711   86.5938   16.2698 C.ar    1  UNL1        0.0128
     33 C          63.8777   87.4265   15.0394 C.ar    1  UNL1        0.0208
     34 C          66.2159   91.4131   13.5585 C.3     1  UNL1        0.0203
     35 C          66.6578   92.7157   14.1567 C.3     1  UNL1        0.0015
     36 C          66.7617   94.2102   14.0828 C.3     1  UNL1        0.0000
     37 C          67.3196   93.4773   15.2667 C.3     1  UNL1        0.0000
@<TRIPOS>BOND
     1    11    12    2
     2    12    10    1
     3    10     7    1
     4     1     7    1
     5     1     2    1
     6     2     3    1
     7     3     4    1
     8     4     5    1
     9     5    34    1
    10    34    35    1
    11    35    36    1
    12    36    37    1
    13     5     6    1
    14     6    24    1
    15    24    25    2
    16    24    26    2
    17    24    27    1
    18    27    28   ar
    19    28    29   ar
    20    29    30   ar
    21    30    31    1
    22    30    32   ar
    23    32    33   ar
    24     7     8    1
    25     8     9    1
    26    12    13   am
    27    13    14    1
    28    14    15    1
    29    15    16    1
    30    16    17    1
    31    17    18    1
    32    18    19    1
    33    19    20    1
    34    20    21    1
    35    21    22    1
    36     9     7    1
    37    17    13    1
    38     6     1    1
    39    33    27   ar
    40    19    15    1
    41    37    35    1
    42    22    23    1
@<TRIPOS>MOLECULE
*****
 37 42 0 0 0
SMALL
GASTEIGER

@<TRIPOS>ATOM
      1 C          60.7118   88.7015    9.9431 C.3     1  UNL1        0.1455
      2 C          59.9934   89.5388    8.9268 C.3     1  UNL1        0.1634
      3 O          59.5626   88.9320    7.6245 O.3     1  UNL1       -0.3507
      4 C          59.8503   87.4879    7.3384 C.3     1  UNL1        0.1598
      5 C          60.5687   86.6507    8.3548 C.3     1  UNL1        0.1093
      6 N          60.9995   87.2575    9.6571 N.3     1  UNL1       -0.1499
      7 C          61.1425   89.3085   11.2456 C.3     1  UNL1        0.1550
      8 C          59.8022   89.5990   11.8533 C.3     1  UNL1        0.0453
      9 C          61.0557   89.9431   12.6020 C.3     1  UNL1        0.0453
     10 O          62.6323   89.2287   11.0901 O.3     1  UNL1       -0.4403
     11 O          63.7304   89.3161   13.4431 O.2     1  UNL1       -0.2262
     12 C          63.5274   89.9115   12.0813 C.2     1  UNL1        0.4047
     13 N          64.2195   91.1896   11.7108 N.am    1  UNL1       -0.2449
     14 C          64.1134   91.9000   10.3939 C.3     1  UNL1        0.1126
     15 C          64.9676   93.1312   10.4613 C.3     1  UNL1        0.0793
     16 C          65.6016   93.1817   11.8198 C.3     1  UNL1        0.0390
     17 C          65.1392   91.9817   12.5919 C.3     1  UNL1        0.0959
     18 C          65.9934   93.2130   12.6593 C.3     1  UNL1        0.0923
     19 N          65.8873   93.9234   11.3425 N.3     1  UNL1       -0.2688
     20 C          66.5794   95.2015   10.9719 C.3     1  UNL1        0.1043
     21 C          67.4279   95.2641    9.7365 C.3     1  UNL1        0.1544
     22 O          68.5006   94.2403    9.5108 O.3     1  UNL1       -0.3805
     23 H          69.1897   94.3397   10.1862 H       1  UNL1        0.2105
     24 S          61.7179   86.4202   10.6734 S.O2    1  UNL1        0.0635
     25 O          62.8729   86.2649    9.7290 O.2     1  UNL1       -0.1528
     26 O          60.8656   86.3735   11.7194 O.2     1  UNL1       -0.1528
     27 C          62.4362   85.5829   11.6898 C.ar    1  UNL1        0.1223
     28 C          62.4658   84.0901   11.5461 C.ar    1  UNL1        0.0208
     29 C          63.1841   83.2529   12.5625 C.ar    1  UNL1        0.0128
     30 C          63.8729   83.9084   13.7226 C.ar    1  UNL1        0.0578
     31 CL         64.5912   83.0713   14.7389 Cl      1  UNL1       -0.0822
     32 C          63.8433   85.4013   13.8662 C.ar    1  UNL1        0.0128
     33 C          63.1250   86.2385   12.8499 C.ar    1  UNL1        0.0208
     34 C          60.8564   85.2065    8.0687 C.3     1  UNL1        0.0203
     35 C          61.6117   84.8232    6.8307 C.3     1  UNL1        0.0015
     36 C          61.6532   84.1522    5.4898 C.3     1  UNL1        0.0000
     37 C          62.8784   84.8302    6.0274 C.3     1  UNL1        0.0000
@<TRIPOS>BOND
     1    11    12    2
     2    12    10    1
     3    10     7    1
     4     1     7    1
     5     1     2    1
     6     2     3    1
     7     3     4    1
     8     4     5    1
     9     5    34    1
    10    34    35    1
    11    35    36    1
    12    36    37    1
    13     5     6    1
    14     6    24    1
    15    24    25    2
    16    24    26    2
    17    24    27    1
    18    27    28   ar
    19    28    29   ar
    20    29    30   ar
    21    30    31    1
    22    30    32   ar
    23    32    33   ar
    24     7     8    1
    25     8     9    1
    26    12    13   am
    27    13    14    1
    28    14    15    1
    29    15    16    1
    30    16    17    1
    31    17    18    1
    32    18    19    1
    33    19    20    1
    34    20    21    1
    35    21    22    1
    36     9     7    1
    37    17    13    1
    38     6     1    1
    39    33    27   ar
    40    19    15    1
    41    37    35    1
    42    22    23    1
@<TRIPOS>MOLECULE
*****
 37 42 0 0 0
SMALL
GASTEIGER

@<TRIPOS>ATOM
      1 C          62.3294   86.2385   10.6730 C.3     1  UNL1        0.1455
      2 C          62.3813   85.9582    9.2003 C.3     1  UNL1        0.1634
      3 O          63.1364   84.7670    8.6897 O.3     1  UNL1       -0.3507
      4 C          63.8397   83.8561    9.6518 C.3     1  UNL1        0.1598
      5 C          63.7878   84.1364   11.1245 C.3     1  UNL1        0.1093
      6 N          63.0326   85.3277   11.6351 N.3     1  UNL1       -0.1499
      7 C          61.5742   87.4298   11.1835 C.3     1  UNL1        0.1550
      8 C          60.2023   87.1085   10.6690 C.3     1  UNL1        0.0453
      9 C          60.4335   88.3658   11.4537 C.3     1  UNL1        0.0453
     10 O          62.6838   88.1648   11.8752 O.3     1  UNL1       -0.4403
     11 O          62.8372   89.8687    9.9199 O.2     1  UNL1       -0.2262
     12 C          63.1731   89.4725   11.3271 C.2     1  UNL1        0.4047
     13 N          63.9983   90.3841   12.1862 N.am    1  UNL1       -0.2449
     14 C          64.4117   90.1240   13.6045 C.3     1  UNL1        0.1126
     15 C          65.2239   91.2950   14.0727 C.3     1  UNL1        0.0793
     16 C          65.3125   92.2787   12.9438 C.3     1  UNL1        0.0390
     17 C          64.5551   91.7157   11.7779 C.3     1  UNL1        0.0959
     18 C          65.3673   92.8867   12.2461 C.3     1  UNL1        0.0923
     19 N          65.7807   92.6266   13.6644 N.3     1  UNL1       -0.2688
     20 C          66.6059   93.5381   14.5235 C.3     1  UNL1        0.1043
     21 C          67.9744   93.1144   14.9680 C.3     1  UNL1        0.1544
     22 O          68.7665   92.1476   14.1386 O.3     1  UNL1       -0.3805
     23 H          68.3226   91.2851   14.1353 H       1  UNL1        0.2105
     24 S          62.9808   85.6079   13.1077 S.O2    1  UNL1        0.0635
     25 O          61.7375   84.7765   13.2222 O.2     1  UNL1       -0.1528
     26 O          64.0551   86.3950   13.3284 O.2     1  UNL1       -0.1528
     27 C          62.9290   85.8883   14.5804 C.ar    1  UNL1        0.1223
     28 C          62.3045   84.8922   15.5120 C.ar    1  UNL1        0.0208
     29 C          62.2528   85.1727   16.9847 C.ar    1  UNL1        0.0128
     30 C          62.8254   86.4490   17.5258 C.ar    1  UNL1        0.0578
     31 CL         62.7737   86.7295   18.9983 Cl      1  UNL1       -0.0822
     32 C          63.4499   87.4451   16.5941 C.ar    1  UNL1        0.0128
     33 C          63.5017   87.1648   15.1215 C.ar    1  UNL1        0.0208
     34 C          64.4911   83.2255   12.0866 C.3     1  UNL1        0.0203
     35 C          63.7897   82.0111   12.6189 C.3     1  UNL1        0.0015
     36 C          62.8567   80.8549   12.4123 C.3     1  UNL1        0.0000
     37 C          63.5078   81.0639   13.7473 C.3     1  UNL1        0.0000
@<TRIPOS>BOND
     1    11    12    2
     2    12    10    1
     3    10     7    1
     4     1     7    1
     5     1     2    1
     6     2     3    1
     7     3     4    1
     8     4     5    1
     9     5    34    1
    10    34    35    1
    11    35    36    1
    12    36    37    1
    13     5     6    1
    14     6    24    1
    15    24    25    2
    16    24    26    2
    17    24    27    1
    18    27    28   ar
    19    28    29   ar
    20    29    30   ar
    21    30    31    1
    22    30    32   ar
    23    32    33   ar
    24     7     8    1
    25     8     9    1
    26    12    13   am
    27    13    14    1
    28    14    15    1
    29    15    16    1
    30    16    17    1
    31    17    18    1
    32    18    19    1
    33    19    20    1
    34    20    21    1
    35    21    22    1
    36     9     7    1
    37    17    13    1
    38     6     1    1
    39    33    27   ar
    40    19    15    1
    41    37    35    1
    42    22    23    1
@<TRIPOS>MOLECULE
*****
 37 42 0 0 0
SMALL
GASTEIGER

@<TRIPOS>ATOM
      1 C          63.3261   88.1890   12.9058 C.3     1  UNL1        0.1455
      2 C          64.1890   87.8100   14.0727 C.3     1  UNL1        0.1634
      3 O          64.4352   86.3636   14.3848 O.3     1  UNL1       -0.3507
      4 C          63.8187   85.2964   13.5299 C.3     1  UNL1        0.1598
      5 C          62.9559   85.6755   12.3629 C.3     1  UNL1        0.1093
      6 N          62.7096   87.1219   12.0508 N.3     1  UNL1       -0.1499
      7 C          63.0798   89.6355   12.5937 C.3     1  UNL1        0.1550
      8 C          63.7918   89.7429   11.2778 C.3     1  UNL1        0.0453
      9 C          63.1106   90.9447   11.8622 C.3     1  UNL1        0.0453
     10 O          62.2823   90.0304   13.8012 O.3     1  UNL1       -0.4403
     11 O          62.4407   89.8982   16.3911 O.2     1  UNL1       -0.2262
     12 C          62.9826   90.3843   15.0796 C.2     1  UNL1        0.4047
     13 N          64.2249   91.2244   15.0465 N.am    1  UNL1       -0.2449
     14 C          64.8811   91.7798   13.8173 C.3     1  UNL1        0.1126
     15 C          66.0908   92.5552   14.2479 C.3     1  UNL1        0.0793
     16 C          66.1823   92.4789   15.7432 C.3     1  UNL1        0.0390
     17 C          65.0290   91.6564   16.2367 C.3     1  UNL1        0.0959
     18 C          66.2388   92.4318   16.6672 C.3     1  UNL1        0.0923
     19 N          66.8950   92.9873   15.4380 N.3     1  UNL1       -0.2688
     20 C          68.1372   93.8273   15.4049 C.3     1  UNL1        0.1043
     21 C          69.4722   93.1833   15.1742 C.3     1  UNL1        0.1544
     22 O          69.6510   92.2113   14.0458 O.3     1  UNL1       -0.3805
     23 H          69.1156   91.4199   14.2129 H       1  UNL1        0.2105
     24 S          61.8467   87.5009   10.8839 S.O2    1  UNL1        0.0635
     25 O          60.6599   87.6050   11.7952 O.2     1  UNL1       -0.1528
     26 O          62.6953   87.4926    9.8340 O.2     1  UNL1       -0.1528
     27 C          60.9840   87.8800    9.7168 C.ar    1  UNL1        0.1223
     28 C          60.2725   86.8170    8.9335 C.ar    1  UNL1        0.0208
     29 C          59.4098   87.1961    7.7664 C.ar    1  UNL1        0.0128
     30 C          59.2585   88.6382    7.3827 C.ar    1  UNL1        0.0578
     31 CL         58.3958   89.0174    6.2158 Cl      1  UNL1       -0.0822
     32 C          59.9700   89.7013    8.1662 C.ar    1  UNL1        0.0128
     33 C          60.8327   89.3222    9.3331 C.ar    1  UNL1        0.0208
     34 C          62.3393   84.6083   11.5080 C.3     1  UNL1        0.0203
     35 C          63.1824   83.4795   10.9931 C.3     1  UNL1        0.0015
     36 C          64.3046   82.9855   10.1290 C.3     1  UNL1        0.0000
     37 C          63.5205   82.0184   10.9655 C.3     1  UNL1        0.0000
@<TRIPOS>BOND
     1    11    12    2
     2    12    10    1
     3    10     7    1
     4     1     7    1
     5     1     2    1
     6     2     3    1
     7     3     4    1
     8     4     5    1
     9     5    34    1
    10    34    35    1
    11    35    36    1
    12    36    37    1
    13     5     6    1
    14     6    24    1
    15    24    25    2
    16    24    26    2
    17    24    27    1
    18    27    28   ar
    19    28    29   ar
    20    29    30   ar
    21    30    31    1
    22    30    32   ar
    23    32    33   ar
    24     7     8    1
    25     8     9    1
    26    12    13   am
    27    13    14    1
    28    14    15    1
    29    15    16    1
    30    16    17    1
    31    17    18    1
    32    18    19    1
    33    19    20    1
    34    20    21    1
    35    21    22    1
    36     9     7    1
    37    17    13    1
    38     6     1    1
    39    33    27   ar
    40    19    15    1
    41    37    35    1
    42    22    23    1
@<TRIPOS>MOLECULE
*****
 37 42 0 0 0
SMALL
GASTEIGER

@<TRIPOS>ATOM
      1 C          63.1614   87.9716   12.9687 C.3     1  UNL1        0.1455
      2 C          64.0111   87.5360   14.1256 C.3     1  UNL1        0.1634
      3 O          64.3605   86.0873   14.2958 O.3     1  UNL1       -0.3507
      4 C          63.8603   85.0742   13.3091 C.3     1  UNL1        0.1598
      5 C          63.0107   85.5099   12.1523 C.3     1  UNL1        0.1093
      6 N          62.6612   86.9586   11.9821 N.3     1  UNL1       -0.1499
      7 C          62.8120   89.4205   12.7986 C.3     1  UNL1        0.1550
      8 C          61.8053   89.5766   13.8996 C.3     1  UNL1        0.0453
      9 C          62.1550   90.7488   13.0314 C.3     1  UNL1        0.0453
     10 O          63.6973   89.7675   11.6385 O.3     1  UNL1       -0.4403
     11 O          63.9128   91.9809   10.2952 O.2     1  UNL1       -0.2262
     12 C          64.2464   91.1568   11.5033 C.2     1  UNL1        0.4047
     13 N          65.1290   91.7220   12.5764 N.am    1  UNL1       -0.2449
     14 C          65.5471   91.0204   13.8345 C.3     1  UNL1        0.1126
     15 C          66.4251   91.9529   14.6154 C.3     1  UNL1        0.0793
     16 C          66.5495   93.2308   13.8399 C.3     1  UNL1        0.0390
     17 C          65.7485   93.0881   12.5797 C.3     1  UNL1        0.0959
     18 C          66.6265   94.0205   13.3606 C.3     1  UNL1        0.0923
     19 N          67.0446   93.3189   14.6188 N.3     1  UNL1       -0.2688
     20 C          67.9272   93.8841   15.6918 C.3     1  UNL1        0.1043
     21 C          69.3664   93.4694   15.7748 C.3     1  UNL1        0.1544
     22 O          69.9822   92.6713   14.6640 O.3     1  UNL1       -0.3805
     23 H          69.5635   91.7973   14.6233 H       1  UNL1        0.2105
     24 S          61.8116   87.3943   10.8252 S.O2    1  UNL1        0.0635
     25 O          60.5903   87.3156   11.6925 O.2     1  UNL1       -0.1528
     26 O          62.6932   87.5578    9.8159 O.2     1  UNL1       -0.1528
     27 C          60.9621   87.8299    9.6683 C.ar    1  UNL1        0.1223
     28 C          60.8537   89.2857    9.3236 C.ar    1  UNL1        0.0208
     29 C          60.0041   89.7213    8.1666 C.ar    1  UNL1        0.0128
     30 C          59.2629   88.7011    7.3544 C.ar    1  UNL1        0.0578
     31 CL         58.4134   89.1366    6.1975 Cl      1  UNL1       -0.0822
     32 C          59.3714   87.2453    7.6991 C.ar    1  UNL1        0.0128
     33 C          60.2209   86.8097    8.8560 C.ar    1  UNL1        0.0208
     34 C          62.5105   84.4968   11.1656 C.3     1  UNL1        0.0203
     35 C          63.3433   83.2926   10.8397 C.3     1  UNL1        0.0015
     36 C          64.6498   82.6945   10.4091 C.3     1  UNL1        0.0000
     37 C          63.4793   81.8047   10.7058 C.3     1  UNL1        0.0000
@<TRIPOS>BOND
     1    11    12    2
     2    12    10    1
     3    10     7    1
     4     1     7    1
     5     1     2    1
     6     2     3    1
     7     3     4    1
     8     4     5    1
     9     5    34    1
    10    34    35    1
    11    35    36    1
    12    36    37    1
    13     5     6    1
    14     6    24    1
    15    24    25    2
    16    24    26    2
    17    24    27    1
    18    27    28   ar
    19    28    29   ar
    20    29    30   ar
    21    30    31    1
    22    30    32   ar
    23    32    33   ar
    24     7     8    1
    25     8     9    1
    26    12    13   am
    27    13    14    1
    28    14    15    1
    29    15    16    1
    30    16    17    1
    31    17    18    1
    32    18    19    1
    33    19    20    1
    34    20    21    1
    35    21    22    1
    36     9     7    1
    37    17    13    1
    38     6     1    1
    39    33    27   ar
    40    19    15    1
    41    37    35    1
    42    22    23    1
@<TRIPOS>MOLECULE
*****
 37 42 0 0 0
SMALL
GASTEIGER

@<TRIPOS>ATOM
      1 C          62.0441   88.6373   11.1195 C.3     1  UNL1        0.1455
      2 C          61.6356   89.9357   10.4890 C.3     1  UNL1        0.1634
      3 O          60.8223   89.9342    9.2287 O.3     1  UNL1       -0.3507
      4 C          60.4176   88.6344    8.5987 C.3     1  UNL1        0.1598
      5 C          60.8261   87.3361    9.2293 C.3     1  UNL1        0.1093
      6 N          61.6394   87.3376   10.4897 N.3     1  UNL1       -0.1499
      7 C          62.8573   88.6388   12.3800 C.3     1  UNL1        0.1550
      8 C          63.5963   87.3440   12.2146 C.3     1  UNL1        0.0453
      9 C          63.8292   88.1904   13.4310 C.3     1  UNL1        0.0453
     10 O          62.4008   89.9342   12.9830 O.3     1  UNL1       -0.4403
     11 O          63.5516   91.0475   15.0291 O.2     1  UNL1       -0.2262
     12 C          63.4061   90.8959   13.5439 C.2     1  UNL1        0.4047
     13 N          64.2659   91.7059   12.6195 N.am    1  UNL1       -0.2449
     14 C          64.2337   91.6621   11.1205 C.3     1  UNL1        0.1126
     15 C          65.2568   92.6312   10.6063 C.3     1  UNL1        0.0793
     16 C          65.9212   93.2739   11.7876 C.3     1  UNL1        0.0390
     17 C          65.3088   92.7021   13.0317 C.3     1  UNL1        0.0959
     18 C          66.3318   93.6712   12.5176 C.3     1  UNL1        0.0923
     19 N          66.2996   93.6273   11.0186 N.3     1  UNL1       -0.2688
     20 C          67.1594   94.4374   10.0942 C.3     1  UNL1        0.1043
     21 C          68.1678   93.7556    9.2177 C.3     1  UNL1        0.1544
     22 O          69.4082   93.1655    9.8202 O.3     1  UNL1       -0.3805
     23 H          69.9613   93.8756   10.1820 H       1  UNL1        0.2105
     24 S          62.0478   86.0392   11.1202 S.O2    1  UNL1        0.0635
     25 O          60.9487   86.1841   12.1306 O.2     1  UNL1       -0.1528
     26 O          63.0966   85.6300   10.3750 O.2     1  UNL1       -0.1528
     27 C          62.4564   84.7409   11.7506 C.ar    1  UNL1        0.1223
     28 C          62.3225   84.5518   13.2325 C.ar    1  UNL1        0.0208
     29 C          62.7311   83.2534   13.8629 C.ar    1  UNL1        0.0128
     30 C          63.2735   82.1442   13.0113 C.ar    1  UNL1        0.0578
     31 CL         63.6821   80.8459   13.6416 Cl      1  UNL1       -0.0822
     32 C          63.4074   82.3333   11.5293 C.ar    1  UNL1        0.0128
     33 C          62.9988   83.6316   10.8989 C.ar    1  UNL1        0.0208
     34 C          60.4214   86.0363    8.5994 C.3     1  UNL1        0.0203
     35 C          61.3133   85.3850    7.5844 C.3     1  UNL1        0.0015
     36 C          62.6791   84.9458    7.1466 C.3     1  UNL1        0.0000
     37 C          61.4923   84.6959    6.2641 C.3     1  UNL1        0.0000
@<TRIPOS>BOND
     1    11    12    2
     2    12    10    1
     3    10     7    1
     4     1     7    1
     5     1     2    1
     6     2     3    1
     7     3     4    1
     8     4     5    1
     9     5    34    1
    10    34    35    1
    11    35    36    1
    12    36    37    1
    13     5     6    1
    14     6    24    1
    15    24    25    2
    16    24    26    2
    17    24    27    1
    18    27    28   ar
    19    28    29   ar
    20    29    30   ar
    21    30    31    1
    22    30    32   ar
    23    32    33   ar
    24     7     8    1
    25     8     9    1
    26    12    13   am
    27    13    14    1
    28    14    15    1
    29    15    16    1
    30    16    17    1
    31    17    18    1
    32    18    19    1
    33    19    20    1
    34    20    21    1
    35    21    22    1
    36     9     7    1
    37    17    13    1
    38     6     1    1
    39    33    27   ar
    40    19    15    1
    41    37    35    1
    42    22    23    1
@<TRIPOS>MOLECULE
*****
 37 42 0 0 0
SMALL
GASTEIGER

@<TRIPOS>ATOM
      1 C          60.8963   95.2492   -1.7259 C.3     1  UNL1        0.1455
      2 C          61.2410   96.0387   -2.9539 C.3     1  UNL1        0.1634
      3 O          62.6737   96.3581   -3.2625 O.3     1  UNL1       -0.3507
      4 C          63.7617   95.8880   -2.3431 C.3     1  UNL1        0.1598
      5 C          63.4170   95.0985   -1.1151 C.3     1  UNL1        0.1093
      6 N          61.9843   94.7791   -0.8065 N.3     1  UNL1       -0.1499
      7 C          59.4635   94.9298   -1.4173 C.3     1  UNL1        0.1550
      8 C          59.1978   95.9394   -0.3401 C.3     1  UNL1        0.0453
      9 C          58.1112   94.9997   -0.7717 C.3     1  UNL1        0.0453
     10 O          59.2316   93.8094   -2.3872 O.3     1  UNL1       -0.4403
     11 O          58.7923   95.3408   -4.4395 O.2     1  UNL1       -0.2262
     12 C          58.5238   94.0736   -3.6830 C.2     1  UNL1        0.4047
     13 N          57.5475   93.0706   -4.2224 N.am    1  UNL1       -0.2449
     14 C          57.1789   91.7658   -3.5808 C.3     1  UNL1        0.1126
     15 C          56.1720   91.0851   -4.4600 C.3     1  UNL1        0.0793
     16 C          55.9184   91.9692   -5.6449 C.3     1  UNL1        0.0390
     17 C          56.7685   93.1963   -5.4980 C.3     1  UNL1        0.0959
     18 C          55.7616   92.5156   -6.3772 C.3     1  UNL1        0.0923
     19 N          55.3930   91.2108   -5.7355 N.3     1  UNL1       -0.2688
     20 C          54.4167   90.2078   -6.2749 C.3     1  UNL1        0.1043
     21 C          53.7279   89.2555   -5.3430 C.3     1  UNL1        0.1544
     22 O          54.0880   87.7994   -5.3576 O.3     1  UNL1       -0.3805
     23 H          53.8287   87.4108   -6.2077 H       1  UNL1        0.2105
     24 S          61.6396   93.9897    0.4215 S.O2    1  UNL1        0.0635
     25 O          61.6137   92.7314   -0.3947 O.2     1  UNL1       -0.1528
     26 O          61.5871   94.9166    1.4016 O.2     1  UNL1       -0.1528
     27 C          61.2949   93.2003    1.6496 C.ar    1  UNL1        0.1223
     28 C          59.8985   93.2349    2.1960 C.ar    1  UNL1        0.0208
     29 C          59.5539   92.4455    3.4241 C.ar    1  UNL1        0.0128
     30 C          60.6057   91.6215    4.1057 C.ar    1  UNL1        0.0578
     31 CL         60.2612   90.8321    5.3337 Cl      1  UNL1       -0.0822
     32 C          62.0022   91.5869    3.5591 C.ar    1  UNL1        0.0128
     33 C          62.3468   92.3763    2.3312 C.ar    1  UNL1        0.0208
     34 C          64.5050   94.6285   -0.1957 C.3     1  UNL1        0.0203
     35 C          64.8490   95.4248    1.0280 C.3     1  UNL1        0.0015
     36 C          65.0145   95.5133    2.5162 C.3     1  UNL1        0.0000
     37 C          65.2793   96.7156    1.6594 C.3     1  UNL1        0.0000
@<TRIPOS>BOND
     1    11    12    2
     2    12    10    1
     3    10     7    1
     4     1     7    1
     5     1     2    1
     6     2     3    1
     7     3     4    1
     8     4     5    1
     9     5    34    1
    10    34    35    1
    11    35    36    1
    12    36    37    1
    13     5     6    1
    14     6    24    1
    15    24    25    2
    16    24    26    2
    17    24    27    1
    18    27    28   ar
    19    28    29   ar
    20    29    30   ar
    21    30    31    1
    22    30    32   ar
    23    32    33   ar
    24     7     8    1
    25     8     9    1
    26    12    13   am
    27    13    14    1
    28    14    15    1
    29    15    16    1
    30    16    17    1
    31    17    18    1
    32    18    19    1
    33    19    20    1
    34    20    21    1
    35    21    22    1
    36     9     7    1
    37    17    13    1
    38     6     1    1
    39    33    27   ar
    40    19    15    1
    41    37    35    1
    42    22    23    1
