@<TRIPOS>MOLECULE
*****
 34 38 0 0 0
SMALL
GASTEIGER

@<TRIPOS>ATOM
      1 C          62.5995   86.7264   11.5288 C.2     1  UNL1        0.2673
      2 O          63.1843   87.7050   12.5037 O.2     1  UNL1       -0.2682
      3 N          61.6347   87.1971   10.4811 N.am    1  UNL1       -0.2748
      4 C          60.9718   86.3398    9.4440 C.3     1  UNL1        0.0937
      5 C          60.0909   87.2206    8.6085 C.3     1  UNL1        0.0200
      6 C          59.5903   86.1316    7.7066 C.3     1  UNL1        0.0018
      7 C          59.1190   87.5422    7.5121 C.3     1  UNL1        0.0018
      8 C          60.2092   88.6223    9.1293 C.3     1  UNL1        0.0232
      9 C          61.1633   88.6078   10.2866 C.3     1  UNL1        0.0952
     10 C          63.7832   81.7697   10.1467 C.3     1  UNL1        0.0594
     11 C          63.5235   82.9988   10.9664 C.ar    1  UNL1        0.0888
     12 N          63.1371   84.3474   10.4352 N.ar    1  UNL1       -0.2381
     13 C          62.9794   85.2771   11.6016 C.ar    1  UNL1        0.1408
     14 C          63.2682   84.5032   12.8536 C.ar    1  UNL1        0.0526
     15 S          63.6045   83.0952   12.4611 S.2     1  UNL1       -0.0706
     16 C          63.2279   85.0427   14.2527 C.ar    1  UNL1        0.0076
     17 C          64.2382   86.0600   14.6937 C.ar    1  UNL1        0.0005
     18 C          64.1978   86.5995   16.0927 C.ar    1  UNL1        0.0000
     19 C          63.1472   86.1218   17.0508 C.ar    1  UNL1        0.0000
     20 C          62.1369   85.1045   16.6099 C.ar    1  UNL1        0.0000
     21 C          62.1772   84.5650   15.2109 C.ar    1  UNL1        0.0005
     22 C          61.5740   89.7955   11.1057 C.3     1  UNL1        0.1082
     23 N          62.5432   90.7939   10.5455 N.pl3   1  UNL1       -0.3167
     24 H          62.4269   91.1317    9.6281 H       1  UNL1        0.1482
     25 C          63.6897   91.2776   11.3831 C.ar    1  UNL1        0.1285
     26 C          64.7581   92.1334   10.7696 C.ar    1  UNL1        0.0340
     27 C          65.9046   92.6171   11.6072 C.ar    1  UNL1        0.0083
     28 C          65.9826   92.2451   13.0582 C.ar    1  UNL1        0.0906
     29 C          64.9142   91.3894   13.6717 C.ar    1  UNL1        0.1041
     30 N          63.7678   90.9057   12.8341 N.ar    1  UNL1       -0.2294
     31 C          67.1291   92.7289   13.8958 C.3     1  UNL1        0.4200
     32 F          68.2757   93.2127   14.7334 F       1  UNL1       -0.1658
     33 F          66.2575   93.8087   14.4652 F       1  UNL1       -0.1658
     34 F          68.0008   91.6491   13.3264 F       1  UNL1       -0.1658
@<TRIPOS>BOND
     1    10    11    1
     2    11    12   ar
     3    12    13   ar
     4    13     1    1
     5     1     2    2
     6     1     3   am
     7     3     4    1
     8     4     5    1
     9     5     6    1
    10     6     7    1
    11     5     8    1
    12     8     9    1
    13     9    22    1
    14    22    23    1
    15    23    25    1
    16    25    26   ar
    17    26    27   ar
    18    27    28   ar
    19    28    31    1
    20    31    32    1
    21    31    33    1
    22    31    34    1
    23    28    29   ar
    24    29    30   ar
    25    13    14   ar
    26    14    16    1
    27    16    17   ar
    28    17    18   ar
    29    18    19   ar
    30    19    20   ar
    31    20    21   ar
    32    14    15   ar
    33    15    11   ar
    34     9     3    1
    35    30    25   ar
    36    21    16   ar
    37     7     5    1
    38    23    24    1
@<TRIPOS>MOLECULE
*****
 34 38 0 0 0
SMALL
GASTEIGER

@<TRIPOS>ATOM
      1 C          62.5172   84.8995   12.0608 C.2     1  UNL1        0.2673
      2 O          62.4803   86.0126   13.0658 O.2     1  UNL1       -0.2682
      3 N          62.5813   83.4739   12.5227 N.am    1  UNL1       -0.2748
      4 C          62.6236   82.2620   11.6398 C.3     1  UNL1        0.0937
      5 C          62.6828   81.0490   12.5201 C.3     1  UNL1        0.0200
      6 C          62.7140   80.0469   11.4043 C.3     1  UNL1        0.0018
      7 C          62.7471   79.5828   12.8303 C.3     1  UNL1        0.0018
      8 C          62.6772   81.5111   13.9471 C.3     1  UNL1        0.0232
      9 C          62.6145   83.0098   13.9488 C.3     1  UNL1        0.0952
     10 C          62.9943   84.4523    6.8212 C.3     1  UNL1        0.0594
     11 C          62.7093   85.0066    8.1857 C.ar    1  UNL1        0.0888
     12 N          62.8965   84.2849    9.4873 N.ar    1  UNL1       -0.2381
     13 C          62.4900   85.2122   10.5940 C.ar    1  UNL1        0.1408
     14 C          62.0516   86.5069    9.9764 C.ar    1  UNL1        0.0526
     15 S          62.1871   86.3799    8.4881 S.2     1  UNL1       -0.0706
     16 C          61.5634   87.7163   10.7173 C.ar    1  UNL1        0.0076
     17 C          60.0989   87.8861   10.9936 C.ar    1  UNL1        0.0005
     18 C          59.6106   89.0955   11.7344 C.ar    1  UNL1        0.0000
     19 C          60.5869   90.1353   12.1990 C.ar    1  UNL1        0.0000
     20 C          62.0514   89.9656   11.9227 C.ar    1  UNL1        0.0000
     21 C          62.5397   88.7562   11.1819 C.ar    1  UNL1        0.0005
     22 C          62.5893   83.8898   15.1632 C.3     1  UNL1        0.1082
     23 N          63.8268   84.6278   15.5805 N.pl3   1  UNL1       -0.3167
     24 H          64.6420   84.1284   15.8157 H       1  UNL1        0.1482
     25 C          63.8223   86.1266   15.6393 C.ar    1  UNL1        0.1285
     26 C          64.5601   86.9201   14.6020 C.ar    1  UNL1        0.0340
     27 C          64.5556   88.4189   14.6608 C.ar    1  UNL1        0.0083
     28 C          63.8132   89.1242   15.7569 C.ar    1  UNL1        0.0906
     29 C          63.0753   88.3307   16.7942 C.ar    1  UNL1        0.1041
     30 N          63.0799   86.8319   16.7354 N.ar    1  UNL1       -0.2294
     31 C          63.8087   90.6231   15.8157 C.3     1  UNL1        0.4200
     32 F          63.8041   92.1220   15.8745 F       1  UNL1       -0.1658
     33 F          63.4125   90.5651   17.2613 F       1  UNL1       -0.1658
     34 F          64.2048   90.6811   14.3701 F       1  UNL1       -0.1658
@<TRIPOS>BOND
     1    10    11    1
     2    11    12   ar
     3    12    13   ar
     4    13     1    1
     5     1     2    2
     6     1     3   am
     7     3     4    1
     8     4     5    1
     9     5     6    1
    10     6     7    1
    11     5     8    1
    12     8     9    1
    13     9    22    1
    14    22    23    1
    15    23    25    1
    16    25    26   ar
    17    26    27   ar
    18    27    28   ar
    19    28    31    1
    20    31    32    1
    21    31    33    1
    22    31    34    1
    23    28    29   ar
    24    29    30   ar
    25    13    14   ar
    26    14    16    1
    27    16    17   ar
    28    17    18   ar
    29    18    19   ar
    30    19    20   ar
    31    20    21   ar
    32    14    15   ar
    33    15    11   ar
    34     9     3    1
    35    30    25   ar
    36    21    16   ar
    37     7     5    1
    38    23    24    1
@<TRIPOS>MOLECULE
*****
 34 38 0 0 0
SMALL
GASTEIGER

@<TRIPOS>ATOM
      1 C          61.3959   89.1640   11.5116 C.2     1  UNL1        0.2673
      2 O          60.7305   88.5065   12.6843 O.2     1  UNL1       -0.2682
      3 N          62.5441   90.1040   11.7307 N.am    1  UNL1       -0.2748
      4 C          63.3043   90.8315   10.6618 C.3     1  UNL1        0.0937
      5 C          64.3638   91.6586   11.3277 C.3     1  UNL1        0.0200
      6 C          64.9271   92.2386   10.0643 C.3     1  UNL1        0.0018
      7 C          65.5167   92.6161   11.3909 C.3     1  UNL1        0.0018
      8 C          64.2583   91.4422   12.8083 C.3     1  UNL1        0.0232
      9 C          63.1337   90.4814   13.0574 C.3     1  UNL1        0.0952
     10 C          59.1378   89.7159    6.7706 C.3     1  UNL1        0.0594
     11 C          59.8752   89.1350    7.9407 C.ar    1  UNL1        0.0888
     12 N          60.1521   89.8293    9.2411 N.ar    1  UNL1       -0.2381
     13 C          60.9131   88.8814   10.1198 C.ar    1  UNL1        0.1408
     14 C          61.1066   87.6012    9.3624 C.ar    1  UNL1        0.0526
     15 S          60.4652   87.7580    8.0156 S.2     1  UNL1       -0.0706
     16 C          61.8169   86.3789    9.8638 C.ar    1  UNL1        0.0076
     17 C          62.7963   85.6650    8.9799 C.ar    1  UNL1        0.0005
     18 C          63.5065   84.4427    9.4813 C.ar    1  UNL1        0.0000
     19 C          63.2374   83.9341   10.8665 C.ar    1  UNL1        0.0000
     20 C          62.2580   84.6479   11.7505 C.ar    1  UNL1        0.0000
     21 C          61.5478   85.8702   11.2491 C.ar    1  UNL1        0.0005
     22 C          62.6787   89.9851   14.3978 C.3     1  UNL1        0.1082
     23 N          63.6239   89.2177   15.2739 N.pl3   1  UNL1       -0.3167
     24 H          64.2046   89.6959   15.9090 H       1  UNL1        0.1482
     25 C          63.6844   87.7217   15.1823 C.ar    1  UNL1        0.1285
     26 C          64.2963   87.0681   13.9789 C.ar    1  UNL1        0.0340
     27 C          64.3568   85.5721   13.8873 C.ar    1  UNL1        0.0083
     28 C          63.8053   84.7298   14.9992 C.ar    1  UNL1        0.0906
     29 C          63.1933   85.3834   16.2027 C.ar    1  UNL1        0.1041
     30 N          63.1329   86.8794   16.2942 N.ar    1  UNL1       -0.2294
     31 C          63.8658   83.2338   14.9077 C.3     1  UNL1        0.4200
     32 F          63.9263   81.7378   14.8161 F       1  UNL1       -0.1658
     33 F          62.7078   83.1290   15.8553 F       1  UNL1       -0.1658
     34 F          65.0238   83.3386   13.9600 F       1  UNL1       -0.1658
@<TRIPOS>BOND
     1    10    11    1
     2    11    12   ar
     3    12    13   ar
     4    13     1    1
     5     1     2    2
     6     1     3   am
     7     3     4    1
     8     4     5    1
     9     5     6    1
    10     6     7    1
    11     5     8    1
    12     8     9    1
    13     9    22    1
    14    22    23    1
    15    23    25    1
    16    25    26   ar
    17    26    27   ar
    18    27    28   ar
    19    28    31    1
    20    31    32    1
    21    31    33    1
    22    31    34    1
    23    28    29   ar
    24    29    30   ar
    25    13    14   ar
    26    14    16    1
    27    16    17   ar
    28    17    18   ar
    29    18    19   ar
    30    19    20   ar
    31    20    21   ar
    32    14    15   ar
    33    15    11   ar
    34     9     3    1
    35    30    25   ar
    36    21    16   ar
    37     7     5    1
    38    23    24    1
@<TRIPOS>MOLECULE
*****
 34 38 0 0 0
SMALL
GASTEIGER

@<TRIPOS>ATOM
      1 C          60.9586   88.9205   11.1934 C.2     1  UNL1        0.2673
      2 O          60.2079   88.2529   12.3074 O.2     1  UNL1       -0.2682
      3 N          62.0831   89.8628   11.5058 N.am    1  UNL1       -0.2748
      4 C          62.9200   90.6002   10.5029 C.3     1  UNL1        0.0937
      5 C          63.9222   91.4262   11.2533 C.3     1  UNL1        0.0200
      6 C          64.5783   92.0167   10.0405 C.3     1  UNL1        0.0018
      7 C          65.0633   92.3871   11.4107 C.3     1  UNL1        0.0018
      8 C          63.7047   91.1994   12.7200 C.3     1  UNL1        0.0232
      9 C          62.5681   90.2332   12.8761 C.3     1  UNL1        0.0952
     10 C          58.9249   89.4313    6.3473 C.3     1  UNL1        0.0594
     11 C          59.6500   88.8805    7.5395 C.ar    1  UNL1        0.0888
     12 N          59.7834   89.5482    8.8761 N.ar    1  UNL1       -0.2381
     13 C          60.5847   88.6458    9.7669 C.ar    1  UNL1        0.1408
     14 C          60.9464   87.4205    8.9809 C.ar    1  UNL1        0.0526
     15 S          60.3687   87.5656    7.6043 S.2     1  UNL1       -0.0706
     16 C          61.7455   86.2548    9.4834 C.ar    1  UNL1        0.0076
     17 C          62.7144   85.5612    8.5723 C.ar    1  UNL1        0.0005
     18 C          63.5135   84.3955    9.0748 C.ar    1  UNL1        0.0000
     19 C          63.3438   83.9233   10.4884 C.ar    1  UNL1        0.0000
     20 C          62.3748   84.6168   11.3995 C.ar    1  UNL1        0.0000
     21 C          61.5757   85.7825   10.8970 C.ar    1  UNL1        0.0005
     22 C          62.0137   89.7263   14.1745 C.3     1  UNL1        0.1082
     23 N          62.8922   89.6553   15.3883 N.pl3   1  UNL1       -0.3167
     24 H          62.6802   89.0236   16.1131 H       1  UNL1        0.1482
     25 C          64.0935   90.5468   15.4979 C.ar    1  UNL1        0.1285
     26 C          65.3394   90.2245   14.7273 C.ar    1  UNL1        0.0340
     27 C          66.5408   91.1160   14.8369 C.ar    1  UNL1        0.0083
     28 C          66.4961   92.3298   15.7170 C.ar    1  UNL1        0.0906
     29 C          65.2502   92.6522   16.4876 C.ar    1  UNL1        0.1041
     30 N          64.0488   91.7607   16.3780 N.ar    1  UNL1       -0.2294
     31 C          67.6974   93.2213   15.8266 C.3     1  UNL1        0.4200
     32 F          68.8988   94.1129   15.9362 F       1  UNL1       -0.1658
     33 F          67.0660   94.1897   14.8709 F       1  UNL1       -0.1658
     34 F          68.3290   92.2530   16.7823 F       1  UNL1       -0.1658
@<TRIPOS>BOND
     1    10    11    1
     2    11    12   ar
     3    12    13   ar
     4    13     1    1
     5     1     2    2
     6     1     3   am
     7     3     4    1
     8     4     5    1
     9     5     6    1
    10     6     7    1
    11     5     8    1
    12     8     9    1
    13     9    22    1
    14    22    23    1
    15    23    25    1
    16    25    26   ar
    17    26    27   ar
    18    27    28   ar
    19    28    31    1
    20    31    32    1
    21    31    33    1
    22    31    34    1
    23    28    29   ar
    24    29    30   ar
    25    13    14   ar
    26    14    16    1
    27    16    17   ar
    28    17    18   ar
    29    18    19   ar
    30    19    20   ar
    31    20    21   ar
    32    14    15   ar
    33    15    11   ar
    34     9     3    1
    35    30    25   ar
    36    21    16   ar
    37     7     5    1
    38    23    24    1
@<TRIPOS>MOLECULE
*****
 34 38 0 0 0
SMALL
GASTEIGER

@<TRIPOS>ATOM
      1 C          64.1493   90.8851   12.6851 C.2     1  UNL1        0.2673
      2 O          63.5007   91.5990   11.5362 O.2     1  UNL1       -0.2682
      3 N          63.8897   89.4239   12.9030 N.am    1  UNL1       -0.2748
      4 C          64.4643   88.5807   14.0025 C.3     1  UNL1        0.0937
      5 C          63.9397   87.1850   13.8387 C.3     1  UNL1        0.0200
      6 C          64.6552   86.6084   15.0242 C.3     1  UNL1        0.0018
      7 C          63.7754   85.7339   14.1809 C.3     1  UNL1        0.0018
      8 C          63.0408   87.1657   12.6379 C.3     1  UNL1        0.0232
      9 C          63.0099   88.5493   12.0596 C.3     1  UNL1        0.0952
     10 C          66.3888   92.7674   17.0809 C.3     1  UNL1        0.0594
     11 C          66.0869   92.4977   15.6364 C.ar    1  UNL1        0.0888
     12 N          64.9956   91.6108   15.1145 N.ar    1  UNL1       -0.2381
     13 C          65.0575   91.6325   13.6160 C.ar    1  UNL1        0.1408
     14 C          66.1871   92.5328   13.2118 C.ar    1  UNL1        0.0526
     15 S          66.8233   93.0675   14.4605 S.2     1  UNL1       -0.0706
     16 C          66.6069   92.8438   11.8057 C.ar    1  UNL1        0.0076
     17 C          67.6214   91.9796   11.1173 C.ar    1  UNL1        0.0005
     18 C          68.0411   92.2906    9.7112 C.ar    1  UNL1        0.0000
     19 C          67.4464   93.4658    8.9935 C.ar    1  UNL1        0.0000
     20 C          66.4318   94.3300    9.6818 C.ar    1  UNL1        0.0000
     21 C          66.0121   94.0190   11.0879 C.ar    1  UNL1        0.0005
     22 C          62.2353   88.9825   10.8503 C.3     1  UNL1        0.1082
     23 N          61.0597   88.1759   10.3842 N.pl3   1  UNL1       -0.3167
     24 H          60.1807   88.2948   10.8114 H       1  UNL1        0.1482
     25 C          61.2233   87.1881    9.2673 C.ar    1  UNL1        0.1285
     26 C          62.5188   86.4501    9.1024 C.ar    1  UNL1        0.0340
     27 C          62.6823   85.4624    7.9855 C.ar    1  UNL1        0.0083
     28 C          61.5505   85.2126    7.0334 C.ar    1  UNL1        0.0906
     29 C          60.2550   85.9506    7.1983 C.ar    1  UNL1        0.1041
     30 N          60.0914   86.9383    8.3152 N.ar    1  UNL1       -0.2294
     31 C          61.7141   84.2248    5.9165 C.3     1  UNL1        0.4200
     32 F          61.8777   83.2370    4.7995 F       1  UNL1       -0.1658
     33 F          60.2603   83.8696    6.0177 F       1  UNL1       -0.1658
     34 F          63.1679   84.5800    5.8152 F       1  UNL1       -0.1658
@<TRIPOS>BOND
     1    10    11    1
     2    11    12   ar
     3    12    13   ar
     4    13     1    1
     5     1     2    2
     6     1     3   am
     7     3     4    1
     8     4     5    1
     9     5     6    1
    10     6     7    1
    11     5     8    1
    12     8     9    1
    13     9    22    1
    14    22    23    1
    15    23    25    1
    16    25    26   ar
    17    26    27   ar
    18    27    28   ar
    19    28    31    1
    20    31    32    1
    21    31    33    1
    22    31    34    1
    23    28    29   ar
    24    29    30   ar
    25    13    14   ar
    26    14    16    1
    27    16    17   ar
    28    17    18   ar
    29    18    19   ar
    30    19    20   ar
    31    20    21   ar
    32    14    15   ar
    33    15    11   ar
    34     9     3    1
    35    30    25   ar
    36    21    16   ar
    37     7     5    1
    38    23    24    1
@<TRIPOS>MOLECULE
*****
 34 38 0 0 0
SMALL
GASTEIGER

@<TRIPOS>ATOM
      1 C          62.5761   86.7210   11.6851 C.2     1  UNL1        0.2673
      2 O          63.1389   87.6626   12.7083 O.2     1  UNL1       -0.2682
      3 N          61.6277   87.2289   10.6398 N.am    1  UNL1       -0.2748
      4 C          60.9875   86.4107    9.5579 C.3     1  UNL1        0.0937
      5 C          60.1172   87.3202    8.7423 C.3     1  UNL1        0.0200
      6 C          59.6380   86.2658    7.7893 C.3     1  UNL1        0.0018
      7 C          59.1633   87.6810    7.6424 C.3     1  UNL1        0.0018
      8 C          60.2195   88.7007    9.3202 C.3     1  UNL1        0.0232
      9 C          61.1530   88.6443   10.4930 C.3     1  UNL1        0.0952
     10 C          63.7591   81.8150   10.1321 C.3     1  UNL1        0.0594
     11 C          63.5055   83.0166   10.9935 C.ar    1  UNL1        0.0888
     12 N          63.1081   84.3798   10.5101 N.ar    1  UNL1       -0.2381
     13 C          62.9617   85.2716   11.7073 C.ar    1  UNL1        0.1408
     14 C          63.2686   84.4595   12.9305 C.ar    1  UNL1        0.0526
     15 S          63.6047   83.0659   12.4894 S.2     1  UNL1       -0.0706
     16 C          63.2438   84.9543   14.3463 C.ar    1  UNL1        0.0076
     17 C          64.3415   85.8444   14.8491 C.ar    1  UNL1        0.0005
     18 C          64.3167   86.3392   16.2649 C.ar    1  UNL1        0.0000
     19 C          63.1942   85.9439   17.1780 C.ar    1  UNL1        0.0000
     20 C          62.0965   85.0537   16.6753 C.ar    1  UNL1        0.0000
     21 C          62.1213   84.5590   15.2595 C.ar    1  UNL1        0.0005
     22 C          61.5434   89.8002   11.3656 C.3     1  UNL1        0.1082
     23 N          62.9118   89.8489   11.9781 N.pl3   1  UNL1       -0.3167
     24 H          63.2264   89.1041   12.5398 H       1  UNL1        0.1482
     25 C          63.8007   91.0324   11.7349 C.ar    1  UNL1        0.1285
     26 C          64.6781   91.5502   12.8358 C.ar    1  UNL1        0.0340
     27 C          65.5670   92.7337   12.5926 C.ar    1  UNL1        0.0083
     28 C          65.5785   93.3993   11.2485 C.ar    1  UNL1        0.0906
     29 C          64.7011   92.8815   10.1475 C.ar    1  UNL1        0.1041
     30 N          63.8121   91.6980   10.3908 N.ar    1  UNL1       -0.2294
     31 C          66.4674   94.5828   11.0052 C.3     1  UNL1        0.4200
     32 F          67.3563   95.7664   10.7620 F       1  UNL1       -0.1658
     33 F          66.8415   94.0261    9.6636 F       1  UNL1       -0.1658
     34 F          66.0933   95.1396   12.3469 F       1  UNL1       -0.1658
@<TRIPOS>BOND
     1    10    11    1
     2    11    12   ar
     3    12    13   ar
     4    13     1    1
     5     1     2    2
     6     1     3   am
     7     3     4    1
     8     4     5    1
     9     5     6    1
    10     6     7    1
    11     5     8    1
    12     8     9    1
    13     9    22    1
    14    22    23    1
    15    23    25    1
    16    25    26   ar
    17    26    27   ar
    18    27    28   ar
    19    28    31    1
    20    31    32    1
    21    31    33    1
    22    31    34    1
    23    28    29   ar
    24    29    30   ar
    25    13    14   ar
    26    14    16    1
    27    16    17   ar
    28    17    18   ar
    29    18    19   ar
    30    19    20   ar
    31    20    21   ar
    32    14    15   ar
    33    15    11   ar
    34     9     3    1
    35    30    25   ar
    36    21    16   ar
    37     7     5    1
    38    23    24    1
@<TRIPOS>MOLECULE
*****
 34 38 0 0 0
SMALL
GASTEIGER

@<TRIPOS>ATOM
      1 C          62.5938   86.7304   11.8702 C.2     1  UNL1        0.2673
      2 O          62.5548   85.5585   12.8058 O.2     1  UNL1       -0.2682
      3 N          63.1876   88.0316   12.3224 N.am    1  UNL1       -0.2748
      4 C          63.2957   89.2834   11.5030 C.3     1  UNL1        0.0937
      5 C          63.9523   90.3348   12.3475 C.3     1  UNL1        0.0200
      6 C          63.9218   91.4139   11.3061 C.3     1  UNL1        0.0018
      7 C          64.5117   91.6918   12.6569 C.3     1  UNL1        0.0018
      8 C          64.2500   89.7329   13.6888 C.3     1  UNL1        0.0232
      9 C          63.7774   88.3094   13.6733 C.3     1  UNL1        0.0952
     10 C          61.7727   85.0729    6.9246 C.3     1  UNL1        0.0594
     11 C          61.6617   85.8392    8.2094 C.ar    1  UNL1        0.0888
     12 N          62.4835   85.6144    9.4439 N.ar    1  UNL1       -0.2381
     13 C          62.0391   86.6011   10.4826 C.ar    1  UNL1        0.1408
     14 C          60.9427   87.4357    9.8900 C.ar    1  UNL1        0.0526
     15 S          60.7094   86.9649    8.4851 S.2     1  UNL1       -0.0706
     16 C          60.2084   88.5462   10.5811 C.ar    1  UNL1        0.0076
     17 C          60.2772   89.9427   10.0379 C.ar    1  UNL1        0.0005
     18 C          59.5429   91.0532   10.7290 C.ar    1  UNL1        0.0000
     19 C          58.7399   90.7673   11.9632 C.ar    1  UNL1        0.0000
     20 C          58.6711   89.3708   12.5065 C.ar    1  UNL1        0.0000
     21 C          59.4053   88.2603   11.8154 C.ar    1  UNL1        0.0005
     22 C          63.8771   87.3349   14.8092 C.3     1  UNL1        0.1082
     23 N          64.7813   86.1432   14.6979 N.pl3   1  UNL1       -0.3167
     24 H          65.7556   86.2548   14.7844 H       1  UNL1        0.1482
     25 C          64.2009   84.7816   14.4548 C.ar    1  UNL1        0.1285
     26 C          64.7796   83.8990   13.3888 C.ar    1  UNL1        0.0340
     27 C          64.1992   82.5374   13.1457 C.ar    1  UNL1        0.0083
     28 C          63.0403   82.0583   13.9687 C.ar    1  UNL1        0.0906
     29 C          62.4616   82.9408   15.0347 C.ar    1  UNL1        0.1041
     30 N          63.0420   84.3024   15.2778 N.ar    1  UNL1       -0.2294
     31 C          62.4599   80.6966   13.7256 C.3     1  UNL1        0.4200
     32 F          61.8795   79.3349   13.4825 F       1  UNL1       -0.1658
     33 F          63.6064   80.3706   12.8150 F       1  UNL1       -0.1658
     34 F          61.3134   81.0226   14.6362 F       1  UNL1       -0.1658
@<TRIPOS>BOND
     1    10    11    1
     2    11    12   ar
     3    12    13   ar
     4    13     1    1
     5     1     2    2
     6     1     3   am
     7     3     4    1
     8     4     5    1
     9     5     6    1
    10     6     7    1
    11     5     8    1
    12     8     9    1
    13     9    22    1
    14    22    23    1
    15    23    25    1
    16    25    26   ar
    17    26    27   ar
    18    27    28   ar
    19    28    31    1
    20    31    32    1
    21    31    33    1
    22    31    34    1
    23    28    29   ar
    24    29    30   ar
    25    13    14   ar
    26    14    16    1
    27    16    17   ar
    28    17    18   ar
    29    18    19   ar
    30    19    20   ar
    31    20    21   ar
    32    14    15   ar
    33    15    11   ar
    34     9     3    1
    35    30    25   ar
    36    21    16   ar
    37     7     5    1
    38    23    24    1
@<TRIPOS>MOLECULE
*****
 34 38 0 0 0
SMALL
GASTEIGER

@<TRIPOS>ATOM
      1 C          64.6159   91.0223   12.7364 C.2     1  UNL1        0.2673
      2 O          65.1335   90.5412   14.0597 O.2     1  UNL1       -0.2682
      3 N          63.5471   90.2485   12.0230 N.am    1  UNL1       -0.2748
      4 C          62.9346   90.6044   10.7008 C.3     1  UNL1        0.0937
      5 C          61.9121   89.5589   10.3671 C.3     1  UNL1        0.0200
      6 C          61.4952   90.1596    9.0575 C.3     1  UNL1        0.0018
      7 C          60.8512   88.8941    9.5410 C.3     1  UNL1        0.0018
      8 C          61.8927   88.5568   11.4832 C.3     1  UNL1        0.0232
      9 C          62.9031   88.9829   12.5065 C.3     1  UNL1        0.0952
     10 C          65.4028   95.0881    9.4607 C.3     1  UNL1        0.0594
     11 C          65.5289   94.1458   10.6210 C.ar    1  UNL1        0.0888
     12 N          64.7039   92.9142   10.8503 N.ar    1  UNL1       -0.2381
     13 C          65.1672   92.2769   12.1267 C.ar    1  UNL1        0.1408
     14 C          66.2786   93.1146   12.6862 C.ar    1  UNL1        0.0526
     15 S          66.5021   94.2696   11.7557 S.2     1  UNL1       -0.0706
     16 C          67.0338   92.8447   13.9537 C.ar    1  UNL1        0.0076
     17 C          66.3821   93.0912   15.2821 C.ar    1  UNL1        0.0005
     18 C          67.1374   92.8212   16.5497 C.ar    1  UNL1        0.0000
     19 C          68.5443   92.3047   16.4890 C.ar    1  UNL1        0.0000
     20 C          69.1961   92.0581   15.1606 C.ar    1  UNL1        0.0000
     21 C          68.4408   92.3281   13.8931 C.ar    1  UNL1        0.0005
     22 C          63.2149   88.2690   13.7884 C.3     1  UNL1        0.1082
     23 N          64.2322   87.1668   13.8047 N.pl3   1  UNL1       -0.3167
     24 H          65.1912   87.3829   13.8577 H       1  UNL1        0.1482
     25 C          63.7883   85.7355   13.7403 C.ar    1  UNL1        0.1285
     26 C          63.0930   85.2202   12.5150 C.ar    1  UNL1        0.0340
     27 C          62.6491   83.7889   12.4506 C.ar    1  UNL1        0.0083
     28 C          62.9005   82.8728   13.6114 C.ar    1  UNL1        0.0906
     29 C          63.5957   83.3880   14.8367 C.ar    1  UNL1        0.1041
     30 N          64.0396   84.8193   14.9011 N.ar    1  UNL1       -0.2294
     31 C          62.4566   81.4414   13.5470 C.3     1  UNL1        0.4200
     32 F          62.0126   80.0100   13.4826 F       1  UNL1       -0.1658
     33 F          63.5360   81.1517   12.5466 F       1  UNL1       -0.1658
     34 F          61.3771   81.7311   14.5475 F       1  UNL1       -0.1658
@<TRIPOS>BOND
     1    10    11    1
     2    11    12   ar
     3    12    13   ar
     4    13     1    1
     5     1     2    2
     6     1     3   am
     7     3     4    1
     8     4     5    1
     9     5     6    1
    10     6     7    1
    11     5     8    1
    12     8     9    1
    13     9    22    1
    14    22    23    1
    15    23    25    1
    16    25    26   ar
    17    26    27   ar
    18    27    28   ar
    19    28    31    1
    20    31    32    1
    21    31    33    1
    22    31    34    1
    23    28    29   ar
    24    29    30   ar
    25    13    14   ar
    26    14    16    1
    27    16    17   ar
    28    17    18   ar
    29    18    19   ar
    30    19    20   ar
    31    20    21   ar
    32    14    15   ar
    33    15    11   ar
    34     9     3    1
    35    30    25   ar
    36    21    16   ar
    37     7     5    1
    38    23    24    1
