@<TRIPOS>MOLECULE
*****
 29 33 0 0 0
SMALL
GASTEIGER

@<TRIPOS>ATOM
      1 C          62.3079   86.1240   10.5671 C.ar    1  UNL1        0.0718
      2 C          62.9421   85.1208   11.4843 C.ar    1  UNL1        0.1049
      3 N          63.3975   85.8430   12.7176 N.ar    1  UNL1       -0.2242
      4 N          64.0878   85.3679   13.9617 N.ar    1  UNL1       -0.1422
      5 C          64.4253   86.3425   15.0508 C.ar    1  UNL1        0.2211
      6 N          64.0726   87.7922   14.8958 N.ar    1  UNL1       -0.2060
      7 C          63.3823   88.2673   13.6517 C.ar    1  UNL1        0.1513
      8 C          63.0447   87.2927   12.5626 C.ar    1  UNL1        0.1106
      9 C          62.3714   87.4664   11.2335 C.ar    1  UNL1        0.0040
     10 C          61.7075   84.4276    5.6030 C.3     1  UNL1        0.0967
     11 C          61.4385   85.0559    6.9382 C.ar    1  UNL1        0.2270
     12 N          60.1640   85.7277    7.3558 N.ar    1  UNL1       -0.1114
     13 N          60.3346   86.2096    8.7660 N.ar    1  UNL1       -0.1072
     14 C          61.7145   85.8356    9.2200 C.ar    1  UNL1        0.2508
     15 O          62.3967   85.1226    8.0904 O.2     1  UNL1       -0.4195
     16 C          61.8525   88.7560   10.6699 C.3     1  UNL1        0.0241
     17 C          60.4269   89.1583   10.9067 C.3     1  UNL1        0.0047
     18 C          62.7591   89.6433    9.8695 C.3     1  UNL1        0.0047
     19 N          63.0296   89.7170   13.4967 N.pl3   1  UNL1       -0.2967
     20 H          62.0940   89.9822   13.3429 H       1  UNL1        0.1535
     21 C          64.1022   90.7625   13.5761 C.2     1  UNL1        0.0785
     22 C          64.4194   91.6042   12.3757 C.2     1  UNL1        0.2463
     23 N          65.4920   92.6497   12.4550 N.2     1  UNL1       -0.0298
     24 C          66.2475   92.8536   13.7348 C.2     1  UNL1        0.3721
     25 N          67.3493   93.7997   14.1101 N.2     1  UNL1       -0.0308
     26 C          67.7130   93.5428   15.5425 C.2     1  UNL1        0.2359
     27 C          66.8360   92.4378   16.0524 C.2     1  UNL1        0.0542
     28 C          65.9303   92.0119   14.9352 C.2     1  UNL1        0.0758
     29 C          64.8576   90.9663   14.8558 C.3     1  UNL1        0.0794
@<TRIPOS>BOND
     1    10    11    1
     2    11    12   ar
     3    12    13   ar
     4    13    14   ar
     5    14     1    1
     6     1     2   ar
     7     2     3   ar
     8     3     4   ar
     9     4     5   ar
    10     5     6   ar
    11     6     7   ar
    12     7    19    1
    13    19    21    1
    14    21    22    2
    15    22    23    1
    16    23    24    2
    17    24    25    1
    18    25    26    2
    19    26    27    1
    20    27    28    2
    21    28    29    1
    22     7     8   ar
    23     8     9   ar
    24     9    16    1
    25    16    17    1
    26    16    18    1
    27    14    15   ar
    28    15    11   ar
    29     9     1   ar
    30     8     3   ar
    31    29    21    1
    32    28    24    1
    33    19    20    1
@<TRIPOS>MOLECULE
*****
 29 33 0 0 0
SMALL
GASTEIGER

@<TRIPOS>ATOM
      1 C          61.5568   87.6000   10.4378 C.ar    1  UNL1        0.0718
      2 C          62.0195   86.3503   11.1262 C.ar    1  UNL1        0.1049
      3 N          62.8574   86.7527   12.3035 N.ar    1  UNL1       -0.2242
      4 N          63.5774   85.9482   13.3449 N.ar    1  UNL1       -0.1422
      5 C          64.3523   86.6422   14.4255 C.ar    1  UNL1        0.2211
      6 N          64.4074   88.1407   14.4647 N.ar    1  UNL1       -0.2060
      7 C          63.6875   88.9452   13.4233 C.ar    1  UNL1        0.1513
      8 C          62.9125   88.2511   12.3427 C.ar    1  UNL1        0.1106
      9 C          62.1087   88.7748   11.1897 C.ar    1  UNL1        0.0040
     10 C          58.9069   89.4252    6.2512 C.3     1  UNL1        0.0967
     11 C          59.4756   88.5027    7.2883 C.ar    1  UNL1        0.2270
     12 N          59.2552   87.0211    7.3664 N.ar    1  UNL1       -0.1114
     13 N          60.0080   86.5026    8.5558 N.ar    1  UNL1       -0.1072
     14 C          60.6937   87.6638    9.2127 C.ar    1  UNL1        0.2508
     15 O          60.3646   88.8999    8.4293 O.2     1  UNL1       -0.4195
     16 C          61.8943   90.2197   10.8484 C.3     1  UNL1        0.0241
     17 C          62.9768   90.9959   10.1584 C.3     1  UNL1        0.0047
     18 C          60.5977   90.8883   11.1969 C.3     1  UNL1        0.0047
     19 N          63.7426   90.4436   13.4625 N.pl3   1  UNL1       -0.2967
     20 H          62.9170   90.9695   13.3569 H       1  UNL1        0.1535
     21 C          65.0555   91.1409   13.6626 C.2     1  UNL1        0.0785
     22 C          65.7834   91.7214   12.4864 C.2     1  UNL1        0.2463
     23 N          67.0962   92.4186   12.6865 N.2     1  UNL1       -0.0298
     24 C          67.6813   92.5355   14.0627 C.2     1  UNL1        0.3721
     25 N          68.9484   93.1619   14.5649 N.2     1  UNL1       -0.0308
     26 C          69.0036   92.9687   16.0513 C.2     1  UNL1        0.2359
     27 C          67.7707   92.2228   16.4679 C.2     1  UNL1        0.0542
     28 C          66.9535   91.9551   15.2389 C.2     1  UNL1        0.0758
     29 C          65.6405   91.2578   15.0388 C.3     1  UNL1        0.0794
@<TRIPOS>BOND
     1    10    11    1
     2    11    12   ar
     3    12    13   ar
     4    13    14   ar
     5    14     1    1
     6     1     2   ar
     7     2     3   ar
     8     3     4   ar
     9     4     5   ar
    10     5     6   ar
    11     6     7   ar
    12     7    19    1
    13    19    21    1
    14    21    22    2
    15    22    23    1
    16    23    24    2
    17    24    25    1
    18    25    26    2
    19    26    27    1
    20    27    28    2
    21    28    29    1
    22     7     8   ar
    23     8     9   ar
    24     9    16    1
    25    16    17    1
    26    16    18    1
    27    14    15   ar
    28    15    11   ar
    29     9     1   ar
    30     8     3   ar
    31    29    21    1
    32    28    24    1
    33    19    20    1
@<TRIPOS>MOLECULE
*****
 29 33 0 0 0
SMALL
GASTEIGER

@<TRIPOS>ATOM
      1 C          62.3168   86.0443   10.5388 C.ar    1  UNL1        0.0718
      2 C          63.0162   85.0556   11.4238 C.ar    1  UNL1        0.1049
      3 N          63.4362   85.7690   12.6747 N.ar    1  UNL1       -0.2242
      4 N          64.1623   85.3015   13.9011 N.ar    1  UNL1       -0.1422
      5 C          64.4485   86.2636   15.0156 C.ar    1  UNL1        0.2211
      6 N          64.0086   87.6933   14.9038 N.ar    1  UNL1       -0.2060
      7 C          63.2825   88.1608   13.6773 C.ar    1  UNL1        0.1513
      8 C          62.9963   87.1987   12.5628 C.ar    1  UNL1        0.1106
      9 C          62.3044   87.3688   11.2428 C.ar    1  UNL1        0.0040
     10 C          61.7582   84.3811    5.5586 C.3     1  UNL1        0.0967
     11 C          61.4755   84.9942    6.8980 C.ar    1  UNL1        0.2270
     12 N          60.1901   85.6442    7.3166 N.ar    1  UNL1       -0.1114
     13 N          60.3488   86.1167    8.7313 N.ar    1  UNL1       -0.1072
     14 C          61.7323   85.7587    9.1872 C.ar    1  UNL1        0.2508
     15 O          62.4286   85.0650    8.0542 O.2     1  UNL1       -0.4195
     16 C          61.7055   88.6403   10.7187 C.3     1  UNL1        0.0241
     17 C          60.3303   89.0555   11.1511 C.3     1  UNL1        0.0047
     18 C          62.4814   89.4965    9.7625 C.3     1  UNL1        0.0047
     19 N          62.8426   89.5905   13.5655 N.pl3   1  UNL1       -0.2967
     20 H          61.8865   89.8175   13.6261 H       1  UNL1        0.1535
     21 C          63.8593   90.6742   13.3613 C.2     1  UNL1        0.0785
     22 C          64.6685   91.1719   14.5221 C.2     1  UNL1        0.2463
     23 N          65.6852   92.2557   14.3179 N.2     1  UNL1       -0.0298
     24 C          65.8928   92.8418   12.9529 C.2     1  UNL1        0.3721
     25 N          66.8151   93.9125   12.4499 N.2     1  UNL1       -0.0308
     26 C          66.5759   94.0766   10.9782 C.2     1  UNL1        0.2359
     27 C          65.5058   93.1072   10.5716 C.2     1  UNL1        0.0542
     28 C          65.0836   92.3442   11.7920 C.2     1  UNL1        0.0758
     29 C          64.0669   91.2604   11.9962 C.3     1  UNL1        0.0794
@<TRIPOS>BOND
     1    10    11    1
     2    11    12   ar
     3    12    13   ar
     4    13    14   ar
     5    14     1    1
     6     1     2   ar
     7     2     3   ar
     8     3     4   ar
     9     4     5   ar
    10     5     6   ar
    11     6     7   ar
    12     7    19    1
    13    19    21    1
    14    21    22    2
    15    22    23    1
    16    23    24    2
    17    24    25    1
    18    25    26    2
    19    26    27    1
    20    27    28    2
    21    28    29    1
    22     7     8   ar
    23     8     9   ar
    24     9    16    1
    25    16    17    1
    26    16    18    1
    27    14    15   ar
    28    15    11   ar
    29     9     1   ar
    30     8     3   ar
    31    29    21    1
    32    28    24    1
    33    19    20    1
@<TRIPOS>MOLECULE
*****
 29 33 0 0 0
SMALL
GASTEIGER

@<TRIPOS>ATOM
      1 C          62.8219   84.9814   11.7043 C.ar    1  UNL1        0.0718
      2 C          62.4015   85.7909   10.5135 C.ar    1  UNL1        0.1049
      3 N          62.4956   87.2417   10.8825 N.ar    1  UNL1       -0.2242
      4 N          62.2073   88.4946   10.1098 N.ar    1  UNL1       -0.1422
      5 C          62.3977   89.8348   10.7560 C.ar    1  UNL1        0.2211
      6 N          62.8763   89.9221   12.1749 N.ar    1  UNL1       -0.2060
      7 C          63.1646   88.6692   12.9476 C.ar    1  UNL1        0.1513
      8 C          62.9743   87.3290   12.3014 C.ar    1  UNL1        0.1106
      9 C          63.1759   85.9321   12.8093 C.ar    1  UNL1        0.0040
     10 C          62.2392   80.0101   13.3857 C.3     1  UNL1        0.0967
     11 C          62.6106   81.1992   12.5502 C.ar    1  UNL1        0.2270
     12 N          63.3203   81.1615   11.2292 N.ar    1  UNL1       -0.1114
     13 N          63.4859   82.5738   10.7516 N.ar    1  UNL1       -0.1072
     14 C          62.8785   83.4843   11.7773 C.ar    1  UNL1        0.2508
     15 O          62.3376   82.6347   12.8889 O.2     1  UNL1       -0.4195
     16 C          63.6486   85.5525   14.1813 C.3     1  UNL1        0.0241
     17 C          65.0888   85.7396   14.5569 C.3     1  UNL1        0.0047
     18 C          62.6813   84.9858   15.1778 C.3     1  UNL1        0.0047
     19 N          63.6432   88.7565   14.3665 N.pl3   1  UNL1       -0.2967
     20 H          63.4560   88.0224   14.9952 H       1  UNL1        0.1535
     21 C          64.4072   89.9622   14.8275 C.2     1  UNL1        0.0785
     22 C          63.8363   90.8492   15.8940 C.2     1  UNL1        0.2463
     23 N          64.6002   92.0549   16.3550 N.2     1  UNL1       -0.0298
     24 C          65.9350   92.3737   15.7496 C.2     1  UNL1        0.3721
     25 N          66.9110   93.4849   15.9998 N.2     1  UNL1       -0.0308
     26 C          68.0851   93.2847   15.0880 C.2     1  UNL1        0.2359
     27 C          67.8348   92.0498   14.2742 C.2     1  UNL1        0.0542
     28 C          66.5059   91.4868   14.6831 C.2     1  UNL1        0.0758
     29 C          65.7420   90.2810   14.2221 C.3     1  UNL1        0.0794
@<TRIPOS>BOND
     1    10    11    1
     2    11    12   ar
     3    12    13   ar
     4    13    14   ar
     5    14     1    1
     6     1     2   ar
     7     2     3   ar
     8     3     4   ar
     9     4     5   ar
    10     5     6   ar
    11     6     7   ar
    12     7    19    1
    13    19    21    1
    14    21    22    2
    15    22    23    1
    16    23    24    2
    17    24    25    1
    18    25    26    2
    19    26    27    1
    20    27    28    2
    21    28    29    1
    22     7     8   ar
    23     8     9   ar
    24     9    16    1
    25    16    17    1
    26    16    18    1
    27    14    15   ar
    28    15    11   ar
    29     9     1   ar
    30     8     3   ar
    31    29    21    1
    32    28    24    1
    33    19    20    1
@<TRIPOS>MOLECULE
*****
 29 33 0 0 0
SMALL
GASTEIGER

@<TRIPOS>ATOM
      1 C          64.2654   89.0305   14.2308 C.ar    1  UNL1        0.0718
      2 C          64.5857   87.6700   14.7754 C.ar    1  UNL1        0.1049
      3 N          63.9471   86.6501   13.8799 N.ar    1  UNL1       -0.2242
      4 N          63.9243   85.1509   13.9225 N.ar    1  UNL1       -0.1422
      5 C          63.1866   84.3818   12.8670 C.ar    1  UNL1        0.2211
      6 N          62.4716   85.1119   11.7689 N.ar    1  UNL1       -0.2060
      7 C          62.4944   86.6111   11.7263 C.ar    1  UNL1        0.1513
      8 C          63.2322   87.3802   12.7818 C.ar    1  UNL1        0.1106
      9 C          63.4289   88.8513   12.9987 C.ar    1  UNL1        0.0040
     10 C          67.1600   93.2882   15.4030 C.3     1  UNL1        0.0967
     11 C          66.0350   92.2972   15.3545 C.ar    1  UNL1        0.2270
     12 N          64.7256   92.4137   16.0767 N.ar    1  UNL1       -0.1114
     13 N          63.9033   91.2042   15.7437 N.ar    1  UNL1       -0.1072
     14 C          64.7045   90.3401   14.8156 C.ar    1  UNL1        0.2508
     15 O          66.0220   91.0156   14.5751 O.2     1  UNL1       -0.4195
     16 C          62.8846   89.9503   12.1350 C.3     1  UNL1        0.0241
     17 C          63.8231   90.8719   11.4136 C.3     1  UNL1        0.0047
     18 C          61.4021   90.1280   11.9927 C.3     1  UNL1        0.0047
     19 N          61.7795   87.3411   10.6282 N.pl3   1  UNL1       -0.2967
     20 H          61.5307   88.2864   10.7462 H       1  UNL1        0.1535
     21 C          61.4436   86.6311    9.3503 C.2     1  UNL1        0.0785
     22 C          60.0330   86.6321    8.8401 C.2     1  UNL1        0.2463
     23 N          59.6971   85.9221    7.5623 N.2     1  UNL1       -0.0298
     24 C          60.7718   85.2111    6.7945 C.2     1  UNL1        0.3721
     25 N          60.7415   84.4311    5.5136 N.2     1  UNL1       -0.0308
     26 C          62.1334   83.9480    5.2321 C.2     1  UNL1        0.2359
     27 C          63.0239   84.4295    6.3390 C.2     1  UNL1        0.0542
     28 C          62.1823   85.2100    7.3046 C.2     1  UNL1        0.0758
     29 C          62.5183   85.9201    8.5825 C.3     1  UNL1        0.0794
@<TRIPOS>BOND
     1    10    11    1
     2    11    12   ar
     3    12    13   ar
     4    13    14   ar
     5    14     1    1
     6     1     2   ar
     7     2     3   ar
     8     3     4   ar
     9     4     5   ar
    10     5     6   ar
    11     6     7   ar
    12     7    19    1
    13    19    21    1
    14    21    22    2
    15    22    23    1
    16    23    24    2
    17    24    25    1
    18    25    26    2
    19    26    27    1
    20    27    28    2
    21    28    29    1
    22     7     8   ar
    23     8     9   ar
    24     9    16    1
    25    16    17    1
    26    16    18    1
    27    14    15   ar
    28    15    11   ar
    29     9     1   ar
    30     8     3   ar
    31    29    21    1
    32    28    24    1
    33    19    20    1
@<TRIPOS>MOLECULE
*****
 29 33 0 0 0
SMALL
GASTEIGER

@<TRIPOS>ATOM
      1 C          61.0418   87.4620    9.9585 C.ar    1  UNL1        0.0718
      2 C          61.6435   86.1097   10.2017 C.ar    1  UNL1        0.1049
      3 N          62.4491   86.1811   11.4650 N.ar    1  UNL1       -0.2242
      4 N          63.2638   85.1550   12.1953 N.ar    1  UNL1       -0.1422
      5 C          63.9747   85.5255   13.4631 C.ar    1  UNL1        0.2211
      6 N          63.8709   86.9220   14.0006 N.ar    1  UNL1       -0.2060
      7 C          63.0563   87.9481   13.2703 C.ar    1  UNL1        0.1513
      8 C          62.3454   87.5777   12.0025 C.ar    1  UNL1        0.1106
      9 C          61.4756   88.3693   11.0714 C.ar    1  UNL1        0.0040
     10 C          58.9733   90.0844    5.8688 C.3     1  UNL1        0.0967
     11 C          59.2102   89.0459    6.9250 C.ar    1  UNL1        0.2270
     12 N          58.4010   87.8003    7.1340 N.ar    1  UNL1       -0.1114
     13 N          58.9887   87.0554    8.2958 N.ar    1  UNL1       -0.1072
     14 C          60.1610   87.8406    8.8048 C.ar    1  UNL1        0.2508
     15 O          60.2979   89.0708    7.9576 O.2     1  UNL1       -0.4195
     16 C          61.1048   89.8145   11.2261 C.3     1  UNL1        0.0241
     17 C          61.8466   90.8658   10.4550 C.3     1  UNL1        0.0047
     18 C          59.9923   90.2084   12.1518 C.3     1  UNL1        0.0047
     19 N          62.9525   89.3447   13.8078 N.pl3   1  UNL1       -0.2967
     20 H          62.1398   89.6293   14.2850 H       1  UNL1        0.1535
     21 C          64.0870   90.3074   13.6183 C.2     1  UNL1        0.0785
     22 C          64.1098   91.2139   12.4232 C.2     1  UNL1        0.2463
     23 N          65.2442   92.1767   12.2337 N.2     1  UNL1       -0.0298
     24 C          66.3560   92.2331   13.2391 C.2     1  UNL1        0.3721
     25 N          67.5964   93.0728   13.3178 N.2     1  UNL1       -0.0308
     26 C          68.3402   92.6855   14.5615 C.2     1  UNL1        0.2359
     27 C          67.5595   91.6063   15.2514 C.2     1  UNL1        0.0542
     28 C          66.3332   91.3268   14.4341 C.2     1  UNL1        0.0758
     29 C          65.1987   90.3639   14.6237 C.3     1  UNL1        0.0794
@<TRIPOS>BOND
     1    10    11    1
     2    11    12   ar
     3    12    13   ar
     4    13    14   ar
     5    14     1    1
     6     1     2   ar
     7     2     3   ar
     8     3     4   ar
     9     4     5   ar
    10     5     6   ar
    11     6     7   ar
    12     7    19    1
    13    19    21    1
    14    21    22    2
    15    22    23    1
    16    23    24    2
    17    24    25    1
    18    25    26    2
    19    26    27    1
    20    27    28    2
    21    28    29    1
    22     7     8   ar
    23     8     9   ar
    24     9    16    1
    25    16    17    1
    26    16    18    1
    27    14    15   ar
    28    15    11   ar
    29     9     1   ar
    30     8     3   ar
    31    29    21    1
    32    28    24    1
    33    19    20    1
@<TRIPOS>MOLECULE
*****
 29 33 0 0 0
SMALL
GASTEIGER

@<TRIPOS>ATOM
      1 C          62.9825   82.8418   13.6802 C.ar    1  UNL1        0.0718
      2 C          63.0516   82.9551   15.1743 C.ar    1  UNL1        0.1049
      3 N          63.2032   84.4062   15.5227 N.ar    1  UNL1       -0.2242
      4 N          63.3220   85.1153   16.8391 N.ar    1  UNL1       -0.1422
      5 C          63.4655   86.6079   16.8767 C.ar    1  UNL1        0.2211
      6 N          63.4901   87.3914   15.5979 N.ar    1  UNL1       -0.2060
      7 C          63.3713   86.6824   14.2814 C.ar    1  UNL1        0.1513
      8 C          63.2278   85.1897   14.2438 C.ar    1  UNL1        0.1106
      9 C          63.0914   84.2229   13.1052 C.ar    1  UNL1        0.0040
     10 C          62.8346   79.3886    9.6884 C.3     1  UNL1        0.0967
     11 C          62.7631   79.9833   11.0636 C.ar    1  UNL1        0.2270
     12 N          62.4332   79.2455   12.3272 N.ar    1  UNL1       -0.1114
     13 N          62.4753   80.2265   13.4612 N.ar    1  UNL1       -0.1072
     14 C          62.8311   81.5706   12.8985 C.ar    1  UNL1        0.2508
     15 O          63.0091   81.4203   11.4167 O.2     1  UNL1       -0.4195
     16 C          63.0681   84.5753   11.6473 C.3     1  UNL1        0.0241
     17 C          61.9264   85.3702   11.0861 C.3     1  UNL1        0.0047
     18 C          64.1862   84.1329   10.7507 C.3     1  UNL1        0.0047
     19 N          63.3959   87.4659   13.0026 N.pl3   1  UNL1       -0.2967
     20 H          63.1095   87.0433   12.1608 H       1  UNL1        0.1535
     21 C          63.8568   88.8933   13.0063 C.2     1  UNL1        0.0785
     22 C          63.3756   89.8396   11.9466 C.2     1  UNL1        0.2463
     23 N          63.8365   91.2670   11.9503 N.2     1  UNL1       -0.0298
     24 C          64.7787   91.7481   13.0137 C.2     1  UNL1        0.3721
     25 N          65.4004   93.0885   13.2722 N.2     1  UNL1       -0.0308
     26 C          66.2658   92.9707   14.4917 C.2     1  UNL1        0.2359
     27 C          66.1789   91.5574   14.9869 C.2     1  UNL1        0.0542
     28 C          65.2598   90.8019   14.0734 C.2     1  UNL1        0.0758
     29 C          64.7989   89.3744   14.0698 C.3     1  UNL1        0.0794
@<TRIPOS>BOND
     1    10    11    1
     2    11    12   ar
     3    12    13   ar
     4    13    14   ar
     5    14     1    1
     6     1     2   ar
     7     2     3   ar
     8     3     4   ar
     9     4     5   ar
    10     5     6   ar
    11     6     7   ar
    12     7    19    1
    13    19    21    1
    14    21    22    2
    15    22    23    1
    16    23    24    2
    17    24    25    1
    18    25    26    2
    19    26    27    1
    20    27    28    2
    21    28    29    1
    22     7     8   ar
    23     8     9   ar
    24     9    16    1
    25    16    17    1
    26    16    18    1
    27    14    15   ar
    28    15    11   ar
    29     9     1   ar
    30     8     3   ar
    31    29    21    1
    32    28    24    1
    33    19    20    1
@<TRIPOS>MOLECULE
*****
 29 33 0 0 0
SMALL
GASTEIGER

@<TRIPOS>ATOM
      1 C          72.6408   80.1915   12.1968 C.ar    1  UNL1        0.0718
      2 C          72.9154   81.0281   13.4111 C.ar    1  UNL1        0.1049
      3 N          73.1313   80.1033   14.5722 N.ar    1  UNL1       -0.2242
      4 N          73.4383   80.3616   16.0175 N.ar    1  UNL1       -0.1422
      5 C          73.6040   79.2116   16.9661 C.ar    1  UNL1        0.2211
      6 N          73.4629   77.8033   16.4694 N.ar    1  UNL1       -0.2060
      7 C          73.1560   77.5450   15.0241 C.ar    1  UNL1        0.1513
      8 C          72.9902   78.6950   14.0755 C.ar    1  UNL1        0.1106
      9 C          72.6870   78.7495   12.6074 C.ar    1  UNL1        0.0040
     10 C          71.8156   80.3941    6.9854 C.3     1  UNL1        0.0967
     11 C          71.9886   80.7995    8.4192 C.ar    1  UNL1        0.2270
     12 N          71.9072   82.1977    8.9561 N.ar    1  UNL1       -0.1114
     13 N          72.1416   82.1401   10.4366 N.ar    1  UNL1       -0.1072
     14 C          72.3679   80.7063   10.8147 C.ar    1  UNL1        0.2508
     15 O          72.2733   79.8778    9.5678 O.2     1  UNL1       -0.4195
     16 C          72.4685   77.5692   11.7079 C.3     1  UNL1        0.0241
     17 C          71.0995   76.9703   11.5757 C.3     1  UNL1        0.0047
     18 C          73.6187   76.9877   10.9407 C.3     1  UNL1        0.0047
     19 N          73.0148   76.1367   14.5274 N.pl3   1  UNL1       -0.2967
     20 H          73.4762   75.8565   13.7040 H       1  UNL1        0.1535
     21 C          72.1708   75.1552   15.2851 C.2     1  UNL1        0.0785
     22 C          70.6750   75.2539   15.2314 C.2     1  UNL1        0.2463
     23 N          69.8309   74.2724   15.9892 N.2     1  UNL1       -0.0298
     24 C          70.4826   73.1921   16.8006 C.2     1  UNL1        0.3721
     25 N          69.9148   72.0906   17.6456 N.2     1  UNL1       -0.0308
     26 C          71.0596   71.3111   18.2216 C.2     1  UNL1        0.2359
     27 C          72.3350   71.9309   17.7325 C.2     1  UNL1        0.0542
     28 C          71.9784   73.0934   16.8543 C.2     1  UNL1        0.0758
     29 C          72.8225   74.0750   16.0965 C.3     1  UNL1        0.0794
@<TRIPOS>BOND
     1    10    11    1
     2    11    12   ar
     3    12    13   ar
     4    13    14   ar
     5    14     1    1
     6     1     2   ar
     7     2     3   ar
     8     3     4   ar
     9     4     5   ar
    10     5     6   ar
    11     6     7   ar
    12     7    19    1
    13    19    21    1
    14    21    22    2
    15    22    23    1
    16    23    24    2
    17    24    25    1
    18    25    26    2
    19    26    27    1
    20    27    28    2
    21    28    29    1
    22     7     8   ar
    23     8     9   ar
    24     9    16    1
    25    16    17    1
    26    16    18    1
    27    14    15   ar
    28    15    11   ar
    29     9     1   ar
    30     8     3   ar
    31    29    21    1
    32    28    24    1
    33    19    20    1
