@<TRIPOS>MOLECULE
*****
 11 12 0 0 0
SMALL
GASTEIGER

@<TRIPOS>ATOM
      1 C          62.7305   85.6177    8.7340 C.ar    1  UNL1        0.0001
      2 C          61.9346   86.2226    9.8523 C.ar    1  UNL1        0.0015
      3 C          61.9285   85.5740   11.2048 C.ar    1  UNL1        0.0176
      4 C          62.7183   84.3205   11.4390 C.ar    1  UNL1        0.0655
      5 C          63.5142   83.7156   10.3208 C.ar    1  UNL1        0.0176
      6 C          63.5203   84.3642    8.9682 C.ar    1  UNL1        0.0015
      7 N          62.7122   83.6719   12.7915 N.ar    1  UNL1       -0.2864
      8 C          62.8209   84.3800   14.1094 C.ar    1  UNL1        0.1022
      9 C          62.7722   83.3470   15.1960 C.ar    1  UNL1        0.1196
     10 N          62.6335   82.0006   14.5497 N.ar    1  UNL1       -0.2220
     11 C          62.5964   82.2014   13.0637 C.ar    1  UNL1        0.1828
@<TRIPOS>BOND
     1     1     2   ar
     2     2     3   ar
     3     3     4   ar
     4     4     7    1
     5     7     8   ar
     6     8     9   ar
     7     9    10   ar
     8    10    11   ar
     9     4     5   ar
    10     5     6   ar
    11     6     1   ar
    12    11     7   ar
@<TRIPOS>MOLECULE
*****
 11 12 0 0 0
SMALL
GASTEIGER

@<TRIPOS>ATOM
      1 C          62.7467   85.6211    8.7425 C.ar    1  UNL1        0.0001
      2 C          63.5295   84.3611    8.9653 C.ar    1  UNL1        0.0015
      3 C          63.5232   83.7027   10.3131 C.ar    1  UNL1        0.0176
      4 C          62.7342   84.3042   11.4380 C.ar    1  UNL1        0.0655
      5 C          61.9515   85.5642   11.2152 C.ar    1  UNL1        0.0176
      6 C          61.9577   86.2226    9.8674 C.ar    1  UNL1        0.0015
      7 N          62.7279   83.6458   12.7857 N.ar    1  UNL1       -0.2864
      8 C          62.7050   84.3490   14.1105 C.ar    1  UNL1        0.1022
      9 C          62.7064   83.3064   15.1889 C.ar    1  UNL1        0.1196
     10 N          62.7301   81.9587   14.5306 N.ar    1  UNL1       -0.2220
     11 C          62.7434   82.1685   13.0454 C.ar    1  UNL1        0.1828
@<TRIPOS>BOND
     1     1     2   ar
     2     2     3   ar
     3     3     4   ar
     4     4     7    1
     5     7     8   ar
     6     8     9   ar
     7     9    10   ar
     8    10    11   ar
     9     4     5   ar
    10     5     6   ar
    11     6     1   ar
    12    11     7   ar
@<TRIPOS>MOLECULE
*****
 11 12 0 0 0
SMALL
GASTEIGER

@<TRIPOS>ATOM
      1 C          63.9026   83.2711   10.1704 C.ar    1  UNL1        0.0001
      2 C          63.0362   84.4705   10.4167 C.ar    1  UNL1        0.0015
      3 C          62.8197   84.9647   11.8163 C.ar    1  UNL1        0.0176
      4 C          63.4696   84.2594   12.9696 C.ar    1  UNL1        0.0655
      5 C          64.3359   83.0600   12.7234 C.ar    1  UNL1        0.0176
      6 C          64.5524   82.5658   11.3238 C.ar    1  UNL1        0.0015
      7 N          63.2531   84.7536   14.3692 N.ar    1  UNL1       -0.2864
      8 C          64.1304   85.7197   15.1088 C.ar    1  UNL1        0.1022
      9 C          63.5408   85.9316   16.4717 C.ar    1  UNL1        0.1196
     10 N          62.2990   85.0966   16.5744 N.ar    1  UNL1       -0.2220
     11 C          62.1212   84.3685   15.2751 C.ar    1  UNL1        0.1828
@<TRIPOS>BOND
     1     1     2   ar
     2     2     3   ar
     3     3     4   ar
     4     4     7    1
     5     7     8   ar
     6     8     9   ar
     7     9    10   ar
     8    10    11   ar
     9     4     5   ar
    10     5     6   ar
    11     6     1   ar
    12    11     7   ar
@<TRIPOS>MOLECULE
*****
 11 12 0 0 0
SMALL
GASTEIGER

@<TRIPOS>ATOM
      1 C          61.6173   84.9715    7.0953 C.ar    1  UNL1        0.0001
      2 C          60.3228   85.6982    7.3101 C.ar    1  UNL1        0.0015
      3 C          60.2062   86.7139    8.4077 C.ar    1  UNL1        0.0176
      4 C          61.3839   87.0029    9.2905 C.ar    1  UNL1        0.0655
      5 C          62.6784   86.2761    9.0756 C.ar    1  UNL1        0.0176
      6 C          62.7950   85.2604    7.9780 C.ar    1  UNL1        0.0015
      7 N          61.2673   88.0186   10.3881 N.ar    1  UNL1       -0.2864
      8 C          62.3633   88.9184   10.8768 C.ar    1  UNL1        0.1022
      9 C          61.8076   89.7688   11.9805 C.ar    1  UNL1        0.1196
     10 N          60.3679   89.3944   12.1738 N.ar    1  UNL1       -0.2220
     11 C          60.0341   88.3128   11.1897 C.ar    1  UNL1        0.1828
@<TRIPOS>BOND
     1     1     2   ar
     2     2     3   ar
     3     3     4   ar
     4     4     7    1
     5     7     8   ar
     6     8     9   ar
     7     9    10   ar
     8    10    11   ar
     9     4     5   ar
    10     5     6   ar
    11     6     1   ar
    12    11     7   ar
@<TRIPOS>MOLECULE
*****
 11 12 0 0 0
SMALL
GASTEIGER

@<TRIPOS>ATOM
      1 C          63.7797   83.4358   11.1386 C.ar    1  UNL1        0.0001
      2 C          63.8585   83.7465    9.6733 C.ar    1  UNL1        0.0015
      3 C          63.0535   84.8759    9.1017 C.ar    1  UNL1        0.0176
      4 C          62.1698   85.6945    9.9955 C.ar    1  UNL1        0.0655
      5 C          62.0910   85.3838   11.4608 C.ar    1  UNL1        0.0176
      6 C          62.8960   84.2544   12.0324 C.ar    1  UNL1        0.0015
      7 N          61.3649   86.8238    9.4239 N.ar    1  UNL1       -0.2864
      8 C          60.2354   86.6946    8.4453 C.ar    1  UNL1        0.1022
      9 C          59.7205   88.0716    8.1472 C.ar    1  UNL1        0.1196
     10 N          60.5318   89.0518    8.9416 N.ar    1  UNL1       -0.2220
     11 C          61.5480   88.2807    9.7306 C.ar    1  UNL1        0.1828
@<TRIPOS>BOND
     1     1     2   ar
     2     2     3   ar
     3     3     4   ar
     4     4     7    1
     5     7     8   ar
     6     8     9   ar
     7     9    10   ar
     8    10    11   ar
     9     4     5   ar
    10     5     6   ar
    11     6     1   ar
    12    11     7   ar
@<TRIPOS>MOLECULE
*****
 11 12 0 0 0
SMALL
GASTEIGER

@<TRIPOS>ATOM
      1 C          63.3231   90.9604   11.0618 C.ar    1  UNL1        0.0001
      2 C          64.3237   92.0150   10.6921 C.ar    1  UNL1        0.0015
      3 C          65.3475   92.4614   11.6933 C.ar    1  UNL1        0.0176
      4 C          65.3708   91.8533   13.0643 C.ar    1  UNL1        0.0655
      5 C          64.3703   90.7987   13.4340 C.ar    1  UNL1        0.0176
      6 C          63.3464   90.3523   12.4328 C.ar    1  UNL1        0.0015
      7 N          66.3947   92.2997   14.0655 N.ar    1  UNL1       -0.2864
      8 C          67.2623   91.4036   14.8987 C.ar    1  UNL1        0.1022
      9 C          68.1346   92.2706   15.7575 C.ar    1  UNL1        0.1196
     10 N          67.8060   93.7026   15.4550 N.ar    1  UNL1       -0.2220
     11 C          66.7307   93.7205   14.4093 C.ar    1  UNL1        0.1828
@<TRIPOS>BOND
     1     1     2   ar
     2     2     3   ar
     3     3     4   ar
     4     4     7    1
     5     7     8   ar
     6     8     9   ar
     7     9    10   ar
     8    10    11   ar
     9     4     5   ar
    10     5     6   ar
    11     6     1   ar
    12    11     7   ar
@<TRIPOS>MOLECULE
*****
 11 12 0 0 0
SMALL
GASTEIGER

@<TRIPOS>ATOM
      1 C          64.6213   90.4672   14.3553 C.ar    1  UNL1        0.0001
      2 C          65.9176   91.1509   14.6749 C.ar    1  UNL1        0.0015
      3 C          66.5136   92.1223   13.6996 C.ar    1  UNL1        0.0176
      4 C          65.8133   92.4101   12.4047 C.ar    1  UNL1        0.0655
      5 C          64.5170   91.7264   12.0851 C.ar    1  UNL1        0.0176
      6 C          63.9210   90.7550   13.0604 C.ar    1  UNL1        0.0015
      7 N          66.4092   93.3815   11.4295 N.ar    1  UNL1       -0.2864
      8 C          66.2200   94.8695   11.4399 C.ar    1  UNL1        0.1022
      9 C          66.9929   95.4431   10.2894 C.ar    1  UNL1        0.1196
     10 N          67.6598   94.3096    9.5679 N.ar    1  UNL1       -0.2220
     11 C          67.2991   93.0355   10.2725 C.ar    1  UNL1        0.1828
@<TRIPOS>BOND
     1     1     2   ar
     2     2     3   ar
     3     3     4   ar
     4     4     7    1
     5     7     8   ar
     6     8     9   ar
     7     9    10   ar
     8    10    11   ar
     9     4     5   ar
    10     5     6   ar
    11     6     1   ar
    12    11     7   ar
@<TRIPOS>MOLECULE
*****
 11 12 0 0 0
SMALL
GASTEIGER

@<TRIPOS>ATOM
      1 C          64.0297   83.1700   11.5134 C.ar    1  UNL1        0.0001
      2 C          63.1975   84.0600   12.3881 C.ar    1  UNL1        0.0015
      3 C          62.3895   85.1673   11.7789 C.ar    1  UNL1        0.0176
      4 C          62.4138   85.3845   10.2950 C.ar    1  UNL1        0.0655
      5 C          63.2460   84.4945    9.4202 C.ar    1  UNL1        0.0176
      6 C          64.0539   83.3872   10.0294 C.ar    1  UNL1        0.0015
      7 N          61.6058   86.4918    9.6857 N.ar    1  UNL1       -0.2864
      8 C          61.6943   87.9464   10.0412 C.ar    1  UNL1        0.1022
      9 C          60.7106   88.6925    9.1893 C.ar    1  UNL1        0.1196
     10 N          60.0142   87.6990    8.3073 N.ar    1  UNL1       -0.2220
     11 C          60.5674   86.3389    8.6141 C.ar    1  UNL1        0.1828
@<TRIPOS>BOND
     1     1     2   ar
     2     2     3   ar
     3     3     4   ar
     4     4     7    1
     5     7     8   ar
     6     8     9   ar
     7     9    10   ar
     8    10    11   ar
     9     4     5   ar
    10     5     6   ar
    11     6     1   ar
    12    11     7   ar
@<TRIPOS>MOLECULE
*****
 11 12 0 0 0
SMALL
GASTEIGER

@<TRIPOS>ATOM
      1 C          63.9676   90.5031   13.5357 C.ar    1  UNL1        0.0001
      2 C          63.5122   90.8462   12.1483 C.ar    1  UNL1        0.0015
      3 C          64.3175   91.7914   11.3068 C.ar    1  UNL1        0.0176
      4 C          65.5783   92.3934   11.8526 C.ar    1  UNL1        0.0655
      5 C          66.0337   92.0503   13.2399 C.ar    1  UNL1        0.0176
      6 C          65.2284   91.1052   14.0815 C.ar    1  UNL1        0.0015
      7 N          66.3836   93.3386   11.0110 N.ar    1  UNL1       -0.2864
      8 C          67.3365   92.9532    9.9186 C.ar    1  UNL1        0.1022
      9 C          67.9192   94.2115    9.3466 C.ar    1  UNL1        0.1196
     10 N          67.3264   95.3745   10.0855 N.ar    1  UNL1       -0.2220
     11 C          66.3774   94.8350   11.1142 C.ar    1  UNL1        0.1828
@<TRIPOS>BOND
     1     1     2   ar
     2     2     3   ar
     3     3     4   ar
     4     4     7    1
     5     7     8   ar
     6     8     9   ar
     7     9    10   ar
     8    10    11   ar
     9     4     5   ar
    10     5     6   ar
    11     6     1   ar
    12    11     7   ar
