@<TRIPOS>MOLECULE
*****
 40 43 0 0 0
SMALL
GASTEIGER

@<TRIPOS>ATOM
      1 C          63.5255   83.2666   14.3353 C.ar    1  UNL1        0.0807
      2 C          64.7642   84.0887   14.1364 C.ar    1  UNL1        0.0194
      3 C          64.8314   85.4863   14.6768 C.ar    1  UNL1        0.0375
      4 C          63.6600   86.0618   15.4161 C.ar    1  UNL1        0.1559
      5 N          62.4213   85.2396   15.6150 N.ar    1  UNL1       -0.1331
      6 N          62.3541   83.8420   15.0746 N.ar    1  UNL1       -0.1512
      7 N          63.7273   87.4595   15.9566 N.am    1  UNL1       -0.2676
      8 C          63.7760   88.6261   15.0150 C.2     1  UNL1        0.2332
      9 O          63.7575   88.3951   13.5330 O.2     1  UNL1       -0.2743
     10 H          63.7395   87.6111   16.9293 H       1  UNL1        0.1563
     11 C          63.8433   90.0238   15.5555 C.3     1  UNL1        0.1311
     12 C          64.7172   91.0444   14.8888 C.ar    1  UNL1        0.0708
     13 C          64.5211   91.3662   13.4369 C.ar    1  UNL1        0.0521
     14 C          65.3950   92.3869   12.7702 C.ar    1  UNL1        0.1407
     15 C          66.4651   93.0858   13.5554 C.ar    1  UNL1        0.0516
     16 C          66.6612   92.7640   15.0073 C.ar    1  UNL1        0.0620
     17 C          67.7313   93.4629   15.7924 C.3     1  UNL1        0.0522
     18 N          65.7873   91.7433   15.6740 N.ar    1  UNL1       -0.2533
     19 O          65.1988   92.7086   11.3183 O.3     1  UNL1       -0.4787
     20 C          66.3875   92.9591   10.4384 C.3     1  UNL1        0.1768
     21 C          66.8427   94.0927    9.5679 C.3     1  UNL1        0.1103
     22 C          68.0685   93.3133    9.1939 C.3     1  UNL1        0.2709
     23 F          69.2944   92.5340    8.8200 F       1  UNL1       -0.2041
     24 F          68.5237   94.4470    8.3235 F       1  UNL1       -0.2041
     25 C          67.6133   92.1797   10.0644 C.3     1  UNL1        0.1103
     26 C          63.4582   81.8689   13.7948 C.3     1  UNL1        0.0505
     27 C          62.6182   81.5709   12.5884 C.3     1  UNL1        0.0437
     28 C          63.2092   81.6905   11.2148 C.3     1  UNL1        0.1856
     29 F          62.9881   80.6028   10.2059 F       1  UNL1       -0.2351
     30 C          64.0213   82.8978   10.8503 C.3     1  UNL1        0.1643
     31 C          62.0323   86.1528   10.1328 C.ar    1  UNL1        0.1762
     32 C          62.5074   85.0891   11.0777 C.ar    1  UNL1        0.1223
     33 N          63.3450   84.1181   10.2994 N.ar    1  UNL1       -0.2272
     34 N          63.3875   84.5816    8.8735 N.ar    1  UNL1       -0.0636
     35 N          62.5762   85.8391    8.7705 N.ar    1  UNL1       -0.1241
     36 C          60.7688   89.4969   11.8562 C.3     1  UNL1        0.1110
     37 N          61.6357   88.3254   11.5012 N.am    1  UNL1       -0.2978
     38 C          61.1655   87.3243   10.4878 C.2     1  UNL1        0.2670
     39 O          59.8286   87.4949    9.8296 O.2     1  UNL1       -0.2684
     40 H          62.5132   88.2135   11.9332 H       1  UNL1        0.1498
@<TRIPOS>BOND
     1    36    37    1
     2    37    38   am
     3    38    39    2
     4    38    31    1
     5    31    32   ar
     6    32    33   ar
     7    33    30    1
     8    30    28    1
     9    28    29    1
    10    28    27    1
    11    27    26    1
    12    26     1    1
    13     1     2   ar
    14     2     3   ar
    15     3     4   ar
    16     4     7    1
    17     7     8   am
    18     8     9    2
    19     8    11    1
    20    11    12    1
    21    12    13   ar
    22    13    14   ar
    23    14    19    1
    24    19    20    1
    25    20    21    1
    26    21    22    1
    27    22    23    1
    28    22    24    1
    29    22    25    1
    30    14    15   ar
    31    15    16   ar
    32    16    17    1
    33    16    18   ar
    34     4     5   ar
    35     5     6   ar
    36    33    34   ar
    37    34    35   ar
    38    35    31   ar
    39     6     1   ar
    40    18    12   ar
    41    25    20    1
    42    37    40    1
    43     7    10    1
@<TRIPOS>MOLECULE
*****
 40 43 0 0 0
SMALL
GASTEIGER

@<TRIPOS>ATOM
      1 C          60.2085   88.3458    9.3593 C.ar    1  UNL1        0.0807
      2 C          61.2592   89.3885    9.1169 C.ar    1  UNL1        0.0194
      3 C          61.9439   90.0472   10.2775 C.ar    1  UNL1        0.0375
      4 C          61.5780   89.6632   11.6806 C.ar    1  UNL1        0.1559
      5 N          60.5273   88.6204   11.9230 N.ar    1  UNL1       -0.1331
      6 N          59.8426   87.9618   10.7623 N.ar    1  UNL1       -0.1512
      7 N          62.2628   90.3219   12.8413 N.am    1  UNL1       -0.2676
      8 C          63.3578   89.6032   13.5724 C.2     1  UNL1        0.2332
      9 O          63.7680   88.2258   13.1429 O.2     1  UNL1       -0.2743
     10 H          61.9936   91.2259   13.1233 H       1  UNL1        0.1563
     11 C          64.0426   90.2620   14.7331 C.3     1  UNL1        0.1311
     12 C          65.1057   91.2920   14.4906 C.ar    1  UNL1        0.0708
     13 C          65.0458   92.1579   13.2673 C.ar    1  UNL1        0.0521
     14 C          66.1089   93.1879   13.0248 C.ar    1  UNL1        0.1407
     15 C          67.2319   93.3520   14.0056 C.ar    1  UNL1        0.0516
     16 C          67.2918   92.4861   15.2290 C.ar    1  UNL1        0.0620
     17 C          68.4147   92.6502   16.2098 C.3     1  UNL1        0.0522
     18 N          66.2286   91.4561   15.4715 N.ar    1  UNL1       -0.2533
     19 O          66.0491   94.0539   11.8014 O.3     1  UNL1       -0.4787
     20 C          66.8462   93.6887   10.5844 C.3     1  UNL1        0.1768
     21 C          67.1338   94.3476    9.2679 C.3     1  UNL1        0.1103
     22 C          67.9735   93.1723    8.8632 C.3     1  UNL1        0.2709
     23 F          68.8132   91.9972    8.4584 F       1  UNL1       -0.2041
     24 F          68.2611   93.8313    7.5467 F       1  UNL1       -0.2041
     25 C          67.6859   92.5135   10.1797 C.3     1  UNL1        0.1103
     26 C          59.5237   87.6871    8.1985 C.3     1  UNL1        0.0505
     27 C          59.7269   86.2236    7.9400 C.3     1  UNL1        0.0437
     28 C          61.1025   85.6955    7.6590 C.3     1  UNL1        0.1856
     29 F          61.3221   84.7423    6.5218 F       1  UNL1       -0.2351
     30 C          62.2584   86.1207    8.5151 C.3     1  UNL1        0.1643
     31 C          62.9947   84.4334   11.9322 C.ar    1  UNL1        0.1762
     32 C          62.3755   85.5319   11.1199 C.ar    1  UNL1        0.1223
     33 N          62.6847   85.2710    9.6754 N.ar    1  UNL1       -0.2272
     34 N          63.4950   84.0113    9.5950 N.ar    1  UNL1       -0.0636
     35 N          63.6866   83.4936   10.9898 N.ar    1  UNL1       -0.1241
     36 C          63.4021   85.2601   15.7923 C.3     1  UNL1        0.1110
     37 N          63.4639   85.3951   14.2997 N.am    1  UNL1       -0.2978
     38 C          62.9329   84.2984   13.4248 C.2     1  UNL1        0.2670
     39 O          62.3401   83.0669   14.0426 O.2     1  UNL1       -0.2684
     40 H          63.8529   86.2035   13.8943 H       1  UNL1        0.1498
@<TRIPOS>BOND
     1    36    37    1
     2    37    38   am
     3    38    39    2
     4    38    31    1
     5    31    32   ar
     6    32    33   ar
     7    33    30    1
     8    30    28    1
     9    28    29    1
    10    28    27    1
    11    27    26    1
    12    26     1    1
    13     1     2   ar
    14     2     3   ar
    15     3     4   ar
    16     4     7    1
    17     7     8   am
    18     8     9    2
    19     8    11    1
    20    11    12    1
    21    12    13   ar
    22    13    14   ar
    23    14    19    1
    24    19    20    1
    25    20    21    1
    26    21    22    1
    27    22    23    1
    28    22    24    1
    29    22    25    1
    30    14    15   ar
    31    15    16   ar
    32    16    17    1
    33    16    18   ar
    34     4     5   ar
    35     5     6   ar
    36    33    34   ar
    37    34    35   ar
    38    35    31   ar
    39     6     1   ar
    40    18    12   ar
    41    25    20    1
    42    37    40    1
    43     7    10    1
@<TRIPOS>MOLECULE
*****
 40 43 0 0 0
SMALL
GASTEIGER

@<TRIPOS>ATOM
      1 C          60.7137   88.6759   10.2497 C.ar    1  UNL1        0.0807
      2 C          61.9856   89.3417    9.8151 C.ar    1  UNL1        0.0194
      3 C          62.7825   90.1494   10.7962 C.ar    1  UNL1        0.0375
      4 C          62.3075   90.2913   12.2119 C.ar    1  UNL1        0.1559
      5 N          61.0356   89.6255   12.6465 N.ar    1  UNL1       -0.1331
      6 N          60.2387   88.8179   11.6654 N.ar    1  UNL1       -0.1512
      7 N          63.1044   91.0991   13.1930 N.am    1  UNL1       -0.2676
      8 C          63.7636   90.4247   14.3594 C.2     1  UNL1        0.2332
      9 O          63.6259   88.9426   14.5448 O.2     1  UNL1       -0.2743
     10 H          63.1948   92.0718   13.0713 H       1  UNL1        0.1563
     11 C          64.5606   91.2324   15.3405 C.3     1  UNL1        0.1311
     12 C          65.9202   91.7416   14.9636 C.ar    1  UNL1        0.0708
     13 C          66.5085   91.3921   13.6288 C.ar    1  UNL1        0.0521
     14 C          67.8681   91.9013   13.2518 C.ar    1  UNL1        0.1407
     15 C          68.6396   92.7599   14.2098 C.ar    1  UNL1        0.0516
     16 C          68.0513   93.1094   15.5447 C.ar    1  UNL1        0.0620
     17 C          68.8227   93.9680   16.5026 C.3     1  UNL1        0.0522
     18 N          66.6916   92.6002   15.9216 N.ar    1  UNL1       -0.2533
     19 O          68.4563   91.5518   11.9170 O.3     1  UNL1       -0.4787
     20 C          68.1298   92.3840   10.7125 C.3     1  UNL1        0.1768
     21 C          68.6954   92.5158    9.3294 C.3     1  UNL1        0.1103
     22 C          67.6681   93.5608    9.0090 C.3     1  UNL1        0.2709
     23 F          66.6409   94.6058    8.6885 F       1  UNL1       -0.2041
     24 F          68.2337   93.6926    7.6260 F       1  UNL1       -0.2041
     25 C          67.1025   93.4290   10.3920 C.3     1  UNL1        0.1103
     26 C          59.9168   87.8682    9.2686 C.3     1  UNL1        0.0505
     27 C          60.1938   86.4034    9.1028 C.3     1  UNL1        0.0437
     28 C          61.4569   85.9501    8.4325 C.3     1  UNL1        0.1856
     29 F          61.4527   85.6210    6.9690 F       1  UNL1       -0.2351
     30 C          62.7240   85.8260    9.2256 C.3     1  UNL1        0.1643
     31 C          62.7149   83.8266   12.5523 C.ar    1  UNL1        0.1762
     32 C          62.8211   83.8815   11.0571 C.ar    1  UNL1        0.1223
     33 N          62.6796   85.3139   10.6347 N.ar    1  UNL1       -0.2272
     34 N          62.4860   86.1442   11.8688 N.ar    1  UNL1       -0.0636
     35 N          62.5078   85.2250   13.0540 N.ar    1  UNL1       -0.1241
     36 C          62.2853   80.0692   13.7553 C.3     1  UNL1        0.1110
     37 N          62.1994   81.3054   12.9102 N.am    1  UNL1       -0.2978
     38 C          62.8007   82.5903   13.3975 C.2     1  UNL1        0.2670
     39 O          63.4878   82.6389   14.7299 O.2     1  UNL1       -0.2684
     40 H          61.7485   81.2735   12.0356 H       1  UNL1        0.1498
@<TRIPOS>BOND
     1    36    37    1
     2    37    38   am
     3    38    39    2
     4    38    31    1
     5    31    32   ar
     6    32    33   ar
     7    33    30    1
     8    30    28    1
     9    28    29    1
    10    28    27    1
    11    27    26    1
    12    26     1    1
    13     1     2   ar
    14     2     3   ar
    15     3     4   ar
    16     4     7    1
    17     7     8   am
    18     8     9    2
    19     8    11    1
    20    11    12    1
    21    12    13   ar
    22    13    14   ar
    23    14    19    1
    24    19    20    1
    25    20    21    1
    26    21    22    1
    27    22    23    1
    28    22    24    1
    29    22    25    1
    30    14    15   ar
    31    15    16   ar
    32    16    17    1
    33    16    18   ar
    34     4     5   ar
    35     5     6   ar
    36    33    34   ar
    37    34    35   ar
    38    35    31   ar
    39     6     1   ar
    40    18    12   ar
    41    25    20    1
    42    37    40    1
    43     7    10    1
@<TRIPOS>MOLECULE
*****
 40 43 0 0 0
SMALL
GASTEIGER

@<TRIPOS>ATOM
      1 C          64.5502   91.2415   14.8597 C.ar    1  UNL1        0.0807
      2 C          64.5277   89.7620   15.1056 C.ar    1  UNL1        0.0194
      3 C          63.9512   88.8389   14.0735 C.ar    1  UNL1        0.0375
      4 C          63.3971   89.3952   12.7954 C.ar    1  UNL1        0.1559
      5 N          63.4196   90.8747   12.5495 N.ar    1  UNL1       -0.1331
      6 N          63.9962   91.7979   13.5816 N.ar    1  UNL1       -0.1512
      7 N          62.8206   88.4720   11.7632 N.am    1  UNL1       -0.2676
      8 C          61.3353   88.4011   11.5663 C.2     1  UNL1        0.2332
      9 O          60.4265   89.2535   12.4015 O.2     1  UNL1       -0.2743
     10 H          63.4170   87.9126   11.2150 H       1  UNL1        0.1563
     11 C          60.7587   87.4779   10.5342 C.3     1  UNL1        0.1311
     12 C          61.5903   86.3591    9.9804 C.ar    1  UNL1        0.0708
     13 C          62.3444   85.4544   10.9093 C.ar    1  UNL1        0.0521
     14 C          63.1760   84.3355   10.3555 C.ar    1  UNL1        0.1407
     15 C          63.2534   84.1214    8.8728 C.ar    1  UNL1        0.0516
     16 C          62.4993   85.0261    7.9440 C.ar    1  UNL1        0.0620
     17 C          62.5767   84.8120    6.4614 C.3     1  UNL1        0.0522
     18 N          61.6677   86.1450    8.4978 N.ar    1  UNL1       -0.2533
     19 O          63.9301   83.4308   11.2844 O.3     1  UNL1       -0.4787
     20 C          63.1858   82.4749   12.1688 C.3     1  UNL1        0.1768
     21 C          62.9223   80.9984   12.1500 C.3     1  UNL1        0.1103
     22 C          62.1332   81.1231   13.4196 C.3     1  UNL1        0.2709
     23 F          61.3440   81.2477   14.6890 F       1  UNL1       -0.2041
     24 F          61.8697   79.6465   13.4008 F       1  UNL1       -0.2041
     25 C          62.3966   82.5996   13.4383 C.3     1  UNL1        0.1103
     26 C          65.1268   92.1647   15.8919 C.3     1  UNL1        0.0505
     27 C          66.6135   92.2600   16.0661 C.3     1  UNL1        0.0437
     28 C          67.4801   92.6618   14.9095 C.3     1  UNL1        0.1856
     29 F          68.4558   93.7910   15.0601 F       1  UNL1       -0.2351
     30 C          67.3708   91.9343   13.6023 C.3     1  UNL1        0.1643
     31 C          66.7233   94.3606   10.6427 C.ar    1  UNL1        0.1762
     32 C          66.4676   93.9159   12.0523 C.ar    1  UNL1        0.1223
     33 N          67.3135   92.7058   12.3172 N.ar    1  UNL1       -0.2272
     34 N          68.0919   92.4026   11.0714 N.ar    1  UNL1       -0.0636
     35 N          67.7272   93.4253   10.0365 N.ar    1  UNL1       -0.1241
     36 C          65.5420   96.8487    7.7854 C.3     1  UNL1        0.1110
     37 N          66.1785   95.6748    8.4688 N.am    1  UNL1       -0.2978
     38 C          66.0869   95.5345    9.9594 C.2     1  UNL1        0.2670
     39 O          65.3589   96.5681   10.7666 O.2     1  UNL1       -0.2684
     40 H          66.6563   94.9964    7.9389 H       1  UNL1        0.1498
@<TRIPOS>BOND
     1    36    37    1
     2    37    38   am
     3    38    39    2
     4    38    31    1
     5    31    32   ar
     6    32    33   ar
     7    33    30    1
     8    30    28    1
     9    28    29    1
    10    28    27    1
    11    27    26    1
    12    26     1    1
    13     1     2   ar
    14     2     3   ar
    15     3     4   ar
    16     4     7    1
    17     7     8   am
    18     8     9    2
    19     8    11    1
    20    11    12    1
    21    12    13   ar
    22    13    14   ar
    23    14    19    1
    24    19    20    1
    25    20    21    1
    26    21    22    1
    27    22    23    1
    28    22    24    1
    29    22    25    1
    30    14    15   ar
    31    15    16   ar
    32    16    17    1
    33    16    18   ar
    34     4     5   ar
    35     5     6   ar
    36    33    34   ar
    37    34    35   ar
    38    35    31   ar
    39     6     1   ar
    40    18    12   ar
    41    25    20    1
    42    37    40    1
    43     7    10    1
@<TRIPOS>MOLECULE
*****
 40 43 0 0 0
SMALL
GASTEIGER

@<TRIPOS>ATOM
      1 C          59.6280   88.3922    7.8599 C.ar    1  UNL1        0.0807
      2 C          60.5674   88.8731    8.9258 C.ar    1  UNL1        0.0194
      3 C          61.3873   87.8868    9.7035 C.ar    1  UNL1        0.0375
      4 C          61.2680   86.4196    9.4151 C.ar    1  UNL1        0.1559
      5 N          60.3286   85.9387    8.3492 N.ar    1  UNL1       -0.1331
      6 N          59.5086   86.9250    7.5715 N.ar    1  UNL1       -0.1512
      7 N          62.0880   85.4333   10.1928 N.am    1  UNL1       -0.2676
      8 C          63.0468   84.5271    9.4791 C.2     1  UNL1        0.2332
      9 O          63.1857   84.6071    7.9877 O.2     1  UNL1       -0.2743
     10 H          61.9969   85.3807   11.1717 H       1  UNL1        0.1563
     11 C          63.8669   83.5407   10.2568 C.3     1  UNL1        0.1311
     12 C          63.5319   83.2517   11.6901 C.ar    1  UNL1        0.0708
     13 C          64.2170   84.0101   12.7880 C.ar    1  UNL1        0.0521
     14 C          63.8820   83.7211   14.2213 C.ar    1  UNL1        0.1407
     15 C          62.8620   82.6736   14.5566 C.ar    1  UNL1        0.0516
     16 C          62.1769   81.9152   13.4587 C.ar    1  UNL1        0.0620
     17 C          61.1569   80.8678   13.7939 C.3     1  UNL1        0.0522
     18 N          62.5119   82.2043   12.0253 N.ar    1  UNL1       -0.2533
     19 O          64.5671   84.4795   15.3192 O.3     1  UNL1       -0.4787
     20 C          64.1648   85.8933   15.6183 C.3     1  UNL1        0.1768
     21 C          63.3453   86.5602   16.6830 C.3     1  UNL1        0.1103
     22 C          63.5960   87.8926   16.0412 C.3     1  UNL1        0.2709
     23 F          63.8465   89.2251   15.3996 F       1  UNL1       -0.2041
     24 F          62.7764   88.5595   17.1060 F       1  UNL1       -0.2041
     25 C          64.4155   87.2257   14.9765 C.3     1  UNL1        0.1103
     26 C          58.8080   89.3786    7.0821 C.3     1  UNL1        0.0505
     27 C          59.4159   90.1101    5.9223 C.3     1  UNL1        0.0437
     28 C          58.6108   91.1311    5.1743 C.3     1  UNL1        0.1856
     29 F          57.1575   90.8837    4.8968 F       1  UNL1       -0.2351
     30 C          59.2589   92.3994    4.7038 C.3     1  UNL1        0.1643
     31 C          61.9233   92.6619    1.8936 C.ar    1  UNL1        0.1762
     32 C          60.5623   92.9735    2.4419 C.ar    1  UNL1        0.1223
     33 N          60.4523   92.3401    3.7972 N.ar    1  UNL1       -0.2272
     34 N          61.7454   91.6371    4.0866 N.ar    1  UNL1       -0.0636
     35 N          62.6545   91.8360    2.9102 N.ar    1  UNL1       -0.1241
     36 C          62.1302   93.4479   -1.9908 C.3     1  UNL1        0.1110
     37 N          61.5944   93.0104   -0.6599 N.am    1  UNL1       -0.2978
     38 C          62.4590   93.0994    0.5627 C.2     1  UNL1        0.2670
     39 O          63.8594   93.6258    0.4541 O.2     1  UNL1       -0.2684
     40 H          60.6753   92.6649   -0.5887 H       1  UNL1        0.1498
@<TRIPOS>BOND
     1    36    37    1
     2    37    38   am
     3    38    39    2
     4    38    31    1
     5    31    32   ar
     6    32    33   ar
     7    33    30    1
     8    30    28    1
     9    28    29    1
    10    28    27    1
    11    27    26    1
    12    26     1    1
    13     1     2   ar
    14     2     3   ar
    15     3     4   ar
    16     4     7    1
    17     7     8   am
    18     8     9    2
    19     8    11    1
    20    11    12    1
    21    12    13   ar
    22    13    14   ar
    23    14    19    1
    24    19    20    1
    25    20    21    1
    26    21    22    1
    27    22    23    1
    28    22    24    1
    29    22    25    1
    30    14    15   ar
    31    15    16   ar
    32    16    17    1
    33    16    18   ar
    34     4     5   ar
    35     5     6   ar
    36    33    34   ar
    37    34    35   ar
    38    35    31   ar
    39     6     1   ar
    40    18    12   ar
    41    25    20    1
    42    37    40    1
    43     7    10    1
@<TRIPOS>MOLECULE
*****
 40 43 0 0 0
SMALL
GASTEIGER

@<TRIPOS>ATOM
      1 C          60.0419   88.7247    8.3519 C.ar    1  UNL1        0.0807
      2 C          60.1125   89.7949    9.4006 C.ar    1  UNL1        0.0194
      3 C          60.9157   89.5713   10.6474 C.ar    1  UNL1        0.0375
      4 C          61.6485   88.2776   10.8457 C.ar    1  UNL1        0.1559
      5 N          61.5780   87.2074    9.7970 N.ar    1  UNL1       -0.1331
      6 N          60.7747   87.4310    8.5501 N.ar    1  UNL1       -0.1512
      7 N          62.4518   88.0540   12.0926 N.am    1  UNL1       -0.2676
      8 C          63.3990   89.1125   12.5744 C.2     1  UNL1        0.2332
      9 O          63.5431   90.3946   11.8092 O.2     1  UNL1       -0.2743
     10 H          62.3572   87.2125   12.5948 H       1  UNL1        0.1563
     11 C          64.2023   88.8890   13.8213 C.3     1  UNL1        0.1311
     12 C          64.0018   87.6410   14.6290 C.ar    1  UNL1        0.0708
     13 C          64.3933   86.3091   14.0611 C.ar    1  UNL1        0.0521
     14 C          64.1928   85.0611   14.8688 C.ar    1  UNL1        0.1407
     15 C          63.6007   85.1451   16.2444 C.ar    1  UNL1        0.0516
     16 C          63.2091   86.4771   16.8124 C.ar    1  UNL1        0.0620
     17 C          62.6171   86.5611   18.1880 C.3     1  UNL1        0.0522
     18 N          63.4097   87.7251   16.0046 N.ar    1  UNL1       -0.2533
     19 O          64.5843   83.7291   14.3008 O.3     1  UNL1       -0.4787
     20 C          63.5578   82.6454   14.1540 C.3     1  UNL1        0.1768
     21 C          63.5814   81.2170   13.6966 C.3     1  UNL1        0.1103
     22 C          62.1060   81.1127   13.9463 C.3     1  UNL1        0.2709
     23 F          60.6307   81.0083   14.1960 F       1  UNL1       -0.2041
     24 F          62.1297   79.6843   13.4889 F       1  UNL1       -0.2041
     25 C          62.0824   82.5411   14.4037 C.3     1  UNL1        0.1103
     26 C          59.2387   88.9483    7.1050 C.3     1  UNL1        0.0505
     27 C          59.6851   89.9661    6.0976 C.3     1  UNL1        0.0437
     28 C          58.6815   90.8806    5.4600 C.3     1  UNL1        0.1856
     29 F          57.2236   90.5285    5.4853 F       1  UNL1       -0.2351
     30 C          59.1357   92.1471    4.7971 C.3     1  UNL1        0.1643
     31 C          62.0584   92.6403    2.2911 C.ar    1  UNL1        0.1762
     32 C          60.6452   92.8981    2.7229 C.ar    1  UNL1        0.1223
     33 N          60.4132   92.1658    4.0113 N.ar    1  UNL1       -0.2272
     34 N          61.6830   91.4554    4.3758 N.ar    1  UNL1       -0.0636
     35 N          62.6998   91.7487    3.3127 N.ar    1  UNL1       -0.1241
     36 C          62.5320   94.2441   -1.3080 C.3     1  UNL1        0.1110
     37 N          61.8755   93.7049   -0.0718 N.am    1  UNL1       -0.2978
     38 C          62.7149   93.1795    1.0549 C.2     1  UNL1        0.2670
     39 O          64.2108   93.1933    0.9453 O.2     1  UNL1       -0.2684
     40 H          60.8937   93.6959    0.0001 H       1  UNL1        0.1498
@<TRIPOS>BOND
     1    36    37    1
     2    37    38   am
     3    38    39    2
     4    38    31    1
     5    31    32   ar
     6    32    33   ar
     7    33    30    1
     8    30    28    1
     9    28    29    1
    10    28    27    1
    11    27    26    1
    12    26     1    1
    13     1     2   ar
    14     2     3   ar
    15     3     4   ar
    16     4     7    1
    17     7     8   am
    18     8     9    2
    19     8    11    1
    20    11    12    1
    21    12    13   ar
    22    13    14   ar
    23    14    19    1
    24    19    20    1
    25    20    21    1
    26    21    22    1
    27    22    23    1
    28    22    24    1
    29    22    25    1
    30    14    15   ar
    31    15    16   ar
    32    16    17    1
    33    16    18   ar
    34     4     5   ar
    35     5     6   ar
    36    33    34   ar
    37    34    35   ar
    38    35    31   ar
    39     6     1   ar
    40    18    12   ar
    41    25    20    1
    42    37    40    1
    43     7    10    1
@<TRIPOS>MOLECULE
*****
 40 43 0 0 0
SMALL
GASTEIGER

@<TRIPOS>ATOM
      1 C          63.5128   82.7076   14.3707 C.ar    1  UNL1        0.0807
      2 C          62.3232   83.6007   14.5632 C.ar    1  UNL1        0.0194
      3 C          62.4973   85.0905   14.5715 C.ar    1  UNL1        0.0375
      4 C          63.8611   85.6872   14.3875 C.ar    1  UNL1        0.1559
      5 N          65.0508   84.7942   14.1951 N.ar    1  UNL1       -0.1331
      6 N          64.8767   83.3044   14.1867 N.ar    1  UNL1       -0.1512
      7 N          64.0353   87.1771   14.3959 N.am    1  UNL1       -0.2676
      8 C          63.6439   87.9712   15.6068 C.2     1  UNL1        0.2332
      9 O          63.0785   87.2754   16.8093 O.2     1  UNL1       -0.2743
     10 H          64.4064   87.6338   13.6066 H       1  UNL1        0.1563
     11 C          63.8180   89.4611   15.6151 C.3     1  UNL1        0.1311
     12 C          63.9459   90.2085   14.3210 C.ar    1  UNL1        0.0708
     13 C          65.0909   91.1545   14.1111 C.ar    1  UNL1        0.0521
     14 C          65.2187   91.9020   12.8170 C.ar    1  UNL1        0.1407
     15 C          64.2015   91.7034   11.7325 C.ar    1  UNL1        0.0516
     16 C          63.0565   90.7574   11.9424 C.ar    1  UNL1        0.0620
     17 C          62.0393   90.5589   10.8580 C.3     1  UNL1        0.0522
     18 N          62.9287   90.0100   13.2366 N.ar    1  UNL1       -0.2533
     19 O          66.3637   92.8480   12.6071 O.3     1  UNL1       -0.4787
     20 C          66.9451   93.0294   11.2364 C.3     1  UNL1        0.1768
     21 C          67.7929   92.1929   10.3246 C.3     1  UNL1        0.1103
     22 C          67.7673   93.2861    9.2978 C.3     1  UNL1        0.2709
     23 F          67.7418   94.3793    8.2710 F       1  UNL1       -0.2041
     24 F          68.6151   92.4495    8.3860 F       1  UNL1       -0.2041
     25 C          66.9195   94.1227   10.2097 C.3     1  UNL1        0.1103
     26 C          63.3387   81.2178   14.3624 C.3     1  UNL1        0.0505
     27 C          62.7232   80.5413   13.1735 C.3     1  UNL1        0.0437
     28 C          63.1163   80.9572   11.7869 C.3     1  UNL1        0.1856
     29 F          62.6308   80.1744   10.6031 F       1  UNL1       -0.2351
     30 C          63.9948   82.1560   11.5843 C.3     1  UNL1        0.1643
     31 C          62.2841   85.3110   10.1061 C.ar    1  UNL1        0.1762
     32 C          62.4746   84.3242   11.2197 C.ar    1  UNL1        0.1223
     33 N          63.4997   83.3212   10.7799 N.ar    1  UNL1       -0.2272
     34 N          63.9428   83.6882    9.3947 N.ar    1  UNL1       -0.0636
     35 N          63.1915   84.9179    8.9782 N.ar    1  UNL1       -0.1241
     36 C          59.9961   88.2960    8.8395 C.3     1  UNL1        0.1110
     37 N          60.9300   87.1222    8.8273 N.am    1  UNL1       -0.2978
     38 C          61.3503   86.4847   10.1184 C.2     1  UNL1        0.2670
     39 O          60.8367   87.0210   11.4216 O.2     1  UNL1       -0.2684
     40 H          61.2670   86.7703    7.9718 H       1  UNL1        0.1498
@<TRIPOS>BOND
     1    36    37    1
     2    37    38   am
     3    38    39    2
     4    38    31    1
     5    31    32   ar
     6    32    33   ar
     7    33    30    1
     8    30    28    1
     9    28    29    1
    10    28    27    1
    11    27    26    1
    12    26     1    1
    13     1     2   ar
    14     2     3   ar
    15     3     4   ar
    16     4     7    1
    17     7     8   am
    18     8     9    2
    19     8    11    1
    20    11    12    1
    21    12    13   ar
    22    13    14   ar
    23    14    19    1
    24    19    20    1
    25    20    21    1
    26    21    22    1
    27    22    23    1
    28    22    24    1
    29    22    25    1
    30    14    15   ar
    31    15    16   ar
    32    16    17    1
    33    16    18   ar
    34     4     5   ar
    35     5     6   ar
    36    33    34   ar
    37    34    35   ar
    38    35    31   ar
    39     6     1   ar
    40    18    12   ar
    41    25    20    1
    42    37    40    1
    43     7    10    1
@<TRIPOS>MOLECULE
*****
 40 43 0 0 0
SMALL
GASTEIGER

@<TRIPOS>ATOM
      1 C          63.4104   82.1572   14.2175 C.ar    1  UNL1        0.0807
      2 C          62.1455   82.8857   14.5630 C.ar    1  UNL1        0.0194
      3 C          62.1984   84.3283   14.9703 C.ar    1  UNL1        0.0375
      4 C          63.5160   85.0424   15.0323 C.ar    1  UNL1        0.1559
      5 N          64.7809   84.3139   14.6868 N.ar    1  UNL1       -0.1331
      6 N          64.7280   82.8713   14.2794 N.ar    1  UNL1       -0.1512
      7 N          63.5688   86.4851   15.4397 N.am    1  UNL1       -0.2676
      8 C          62.8662   86.9391   16.6847 C.2     1  UNL1        0.2332
      9 O          62.1107   85.9504   17.5224 O.2     1  UNL1       -0.2743
     10 H          64.0646   87.1341   14.8899 H       1  UNL1        0.1563
     11 C          62.9190   88.3818   17.0921 C.3     1  UNL1        0.1311
     12 C          63.3536   89.4244   16.1052 C.ar    1  UNL1        0.0708
     13 C          64.0875   90.6444   16.5774 C.ar    1  UNL1        0.0521
     14 C          64.5221   91.6870   15.5905 C.ar    1  UNL1        0.1407
     15 C          64.2229   91.5096   14.1313 C.ar    1  UNL1        0.0516
     16 C          63.4890   90.2896   13.6592 C.ar    1  UNL1        0.0620
     17 C          63.1897   90.1121   12.2001 C.3     1  UNL1        0.0522
     18 N          63.0543   89.2469   14.6462 N.ar    1  UNL1       -0.2533
     19 O          65.2560   92.9070   16.0626 O.3     1  UNL1       -0.4787
     20 C          66.7532   92.9579   15.9868 C.3     1  UNL1        0.1768
     21 C          67.8692   92.0658   16.4434 C.3     1  UNL1        0.1103
     22 C          68.8706   93.0298   15.8795 C.3     1  UNL1        0.2709
     23 F          69.8719   93.9938   15.3157 F       1  UNL1       -0.2041
     24 F          69.9866   92.1376   16.3362 F       1  UNL1       -0.2041
     25 C          67.7545   93.9219   15.4229 C.3     1  UNL1        0.1103
     26 C          63.3576   80.7145   13.8101 C.3     1  UNL1        0.0505
     27 C          62.7235   80.3257   12.5075 C.3     1  UNL1        0.0437
     28 C          63.1540   80.9933   11.2351 C.3     1  UNL1        0.1856
     29 F          62.7741   80.3996    9.9110 F       1  UNL1       -0.2351
     30 C          63.9645   82.2544   11.2867 C.3     1  UNL1        0.1643
     31 C          62.3413   85.6114   10.2092 C.ar    1  UNL1        0.1762
     32 C          62.6042   84.5550   11.2411 C.ar    1  UNL1        0.1223
     33 N          63.4621   83.4968   10.6130 N.ar    1  UNL1       -0.2272
     34 N          63.7294   83.8993    9.1930 N.ar    1  UNL1       -0.0636
     35 N          63.0367   85.2061    8.9433 N.ar    1  UNL1       -0.1241
     36 C          60.5849   89.0980    9.4961 C.3     1  UNL1        0.1110
     37 N          61.4000   87.8547    9.2972 N.am    1  UNL1       -0.2978
     38 C          61.5261   86.8547   10.4081 C.2     1  UNL1        0.2670
     39 O          60.8371   87.0982   11.7180 O.2     1  UNL1       -0.2684
     40 H          61.8523   87.6949    8.4374 H       1  UNL1        0.1498
@<TRIPOS>BOND
     1    36    37    1
     2    37    38   am
     3    38    39    2
     4    38    31    1
     5    31    32   ar
     6    32    33   ar
     7    33    30    1
     8    30    28    1
     9    28    29    1
    10    28    27    1
    11    27    26    1
    12    26     1    1
    13     1     2   ar
    14     2     3   ar
    15     3     4   ar
    16     4     7    1
    17     7     8   am
    18     8     9    2
    19     8    11    1
    20    11    12    1
    21    12    13   ar
    22    13    14   ar
    23    14    19    1
    24    19    20    1
    25    20    21    1
    26    21    22    1
    27    22    23    1
    28    22    24    1
    29    22    25    1
    30    14    15   ar
    31    15    16   ar
    32    16    17    1
    33    16    18   ar
    34     4     5   ar
    35     5     6   ar
    36    33    34   ar
    37    34    35   ar
    38    35    31   ar
    39     6     1   ar
    40    18    12   ar
    41    25    20    1
    42    37    40    1
    43     7    10    1
