@<TRIPOS>MOLECULE
*****
 30 31 0 0 0
SMALL
GASTEIGER

@<TRIPOS>ATOM
      1 C          61.0747   88.6860   10.0801 C.3     1  UNL1        0.0364
      2 C          59.9236   89.1171   10.9399 C.3     1  UNL1        0.1375
      3 O          59.4663   88.2466   12.0726 O.3     1  UNL1       -0.3820
      4 H          59.1036   87.4195   11.7186 H       1  UNL1        0.2104
      5 C          62.3050   89.5395    9.9907 C.3     1  UNL1        0.0290
      6 C          64.5019   91.5784   12.5919 C.ar    1  UNL1        0.1718
      7 C          63.7416   91.2260   11.3479 C.ar    1  UNL1        0.0358
      8 C          63.0654   89.8919   11.2348 C.ar    1  UNL1       -0.0189
      9 C          63.1495   88.9101   12.3657 C.ar    1  UNL1       -0.0010
     10 C          63.9099   89.2625   13.6098 C.ar    1  UNL1        0.0395
     11 C          64.5861   90.5967   13.7228 C.ar    1  UNL1        0.1677
     12 O          65.3465   90.9490   14.9669 O.3     1  UNL1       -0.5029
     13 H          65.3990   90.3358   15.6734 H       1  UNL1        0.2923
     14 C          65.9549   93.4604   11.5447 C.3     1  UNL1        0.2526
     15 O          65.1781   92.9126   12.7050 O.3     1  UNL1       -0.4684
     16 C          60.9955   87.4014    9.3098 C.3     1  UNL1        0.0364
     17 C          59.6701   86.9060    8.8117 C.3     1  UNL1        0.1375
     18 O          59.6153   85.8854    7.7139 O.3     1  UNL1       -0.3820
     19 H          59.9621   86.2725    6.8949 H       1  UNL1        0.2104
     20 C          62.2416   86.6121    9.0375 C.3     1  UNL1        0.0290
     21 C          62.6543   85.5153    9.9739 C.ar    1  UNL1       -0.0189
     22 C          63.3764   84.3109    9.4465 C.ar    1  UNL1       -0.0010
     23 C          63.7891   83.2142   10.3828 C.ar    1  UNL1        0.0395
     24 C          63.4797   83.3218   11.8466 C.ar    1  UNL1        0.1677
     25 O          63.8925   82.2251   12.7830 O.3     1  UNL1       -0.5029
     26 C          62.7577   84.5262   12.3740 C.ar    1  UNL1        0.1718
     27 C          62.3450   85.6229   11.4377 C.ar    1  UNL1        0.0358
     28 H          64.3435   81.4727   12.4536 H       1  UNL1        0.2923
     29 O          62.4484   84.6338   13.8379 O.3     1  UNL1       -0.4684
     30 C          63.5351   84.9852   14.8102 C.3     1  UNL1        0.2526
@<TRIPOS>BOND
     1    14    15    1
     2    15     6    1
     3     6     7   ar
     4     7     8   ar
     5     8     5    1
     6     1     5    1
     7     1     2    1
     8     2     3    1
     9     1    16    1
    10    16    17    1
    11    17    18    1
    12    16    20    1
    13    20    21    1
    14    21    22   ar
    15    22    23   ar
    16    23    24   ar
    17    24    25    1
    18    24    26   ar
    19    26    29    1
    20    29    30    1
    21    26    27   ar
    22     8     9   ar
    23     9    10   ar
    24    10    11   ar
    25    11    12    1
    26    11     6   ar
    27    27    21   ar
    28     3     4    1
    29    18    19    1
    30    25    28    1
    31    12    13    1
@<TRIPOS>MOLECULE
*****
 30 31 0 0 0
SMALL
GASTEIGER

@<TRIPOS>ATOM
      1 C          60.9450   87.4541    9.3391 C.3     1  UNL1        0.0364
      2 C          59.6105   86.9608    8.8638 C.3     1  UNL1        0.1375
      3 O          59.5331   85.9840    7.7281 O.3     1  UNL1       -0.3820
      4 H          59.8485   86.4081    6.9147 H       1  UNL1        0.2104
      5 C          62.1861   86.6671    9.0383 C.3     1  UNL1        0.0290
      6 C          62.7603   84.5686   12.3574 C.ar    1  UNL1        0.1718
      7 C          62.3251   85.6655   11.4315 C.ar    1  UNL1        0.0358
      8 C          62.6213   85.5701    9.9641 C.ar    1  UNL1       -0.0189
      9 C          63.3528   84.3778    9.4226 C.ar    1  UNL1       -0.0010
     10 C          63.7880   83.2808   10.3485 C.ar    1  UNL1        0.0395
     11 C          63.4918   83.3762   11.8159 C.ar    1  UNL1        0.1677
     12 O          63.9270   82.2792   12.7417 O.3     1  UNL1       -0.5029
     13 H          64.3840   81.5344   12.4035 H       1  UNL1        0.2923
     14 C          63.5559   85.0230   14.7885 C.3     1  UNL1        0.2526
     15 O          62.4641   84.6639   13.8247 O.3     1  UNL1       -0.4684
     16 C          61.0385   88.7343   10.1152 C.3     1  UNL1        0.0364
     17 C          59.8996   89.1650   10.9914 C.3     1  UNL1        0.1375
     18 O          59.4483   88.2868   12.1205 O.3     1  UNL1       -0.3820
     19 H          59.0761   87.4657   11.7625 H       1  UNL1        0.2104
     20 C          62.2707   89.5838   10.0151 C.3     1  UNL1        0.0290
     21 C          63.0490   89.9247   11.2513 C.ar    1  UNL1       -0.0189
     22 C          63.1407   88.9366   12.3762 C.ar    1  UNL1       -0.0010
     23 C          63.9189   89.2775   13.6123 C.ar    1  UNL1        0.0395
     24 C          64.6054   90.6065   13.7236 C.ar    1  UNL1        0.1677
     25 O          65.3837   90.9475   14.9598 O.3     1  UNL1       -0.5029
     26 C          64.5137   91.5946   12.5988 C.ar    1  UNL1        0.1718
     27 C          63.7355   91.2537   11.3626 C.ar    1  UNL1        0.0358
     28 H          65.4410   90.3303   15.6625 H       1  UNL1        0.2923
     29 O          65.2003   92.9236   12.7101 O.3     1  UNL1       -0.4684
     30 C          66.1090   93.3927   11.6127 C.3     1  UNL1        0.2526
@<TRIPOS>BOND
     1    14    15    1
     2    15     6    1
     3     6     7   ar
     4     7     8   ar
     5     8     5    1
     6     1     5    1
     7     1     2    1
     8     2     3    1
     9     1    16    1
    10    16    17    1
    11    17    18    1
    12    16    20    1
    13    20    21    1
    14    21    22   ar
    15    22    23   ar
    16    23    24   ar
    17    24    25    1
    18    24    26   ar
    19    26    29    1
    20    29    30    1
    21    26    27   ar
    22     8     9   ar
    23     9    10   ar
    24    10    11   ar
    25    11    12    1
    26    11     6   ar
    27    27    21   ar
    28     3     4    1
    29    18    19    1
    30    25    28    1
    31    12    13    1
@<TRIPOS>MOLECULE
*****
 30 31 0 0 0
SMALL
GASTEIGER

@<TRIPOS>ATOM
      1 C          60.9564   89.5491    9.9915 C.3     1  UNL1        0.0364
      2 C          60.0961   90.5689   10.6771 C.3     1  UNL1        0.1375
      3 O          59.6892   90.3676   12.1068 O.3     1  UNL1       -0.3820
      4 H          59.1072   89.5944   12.1715 H       1  UNL1        0.2104
      5 C          62.4489   89.6985   10.0011 C.3     1  UNL1        0.0290
      6 C          63.8608   89.4487   13.7017 C.ar    1  UNL1        0.1718
      7 C          63.1507   89.0949   12.4287 C.ar    1  UNL1        0.0358
      8 C          63.1590   90.0524   11.2741 C.ar    1  UNL1       -0.0189
      9 C          63.8775   91.3638   11.3925 C.ar    1  UNL1       -0.0010
     10 C          64.5876   91.7176   12.6655 C.ar    1  UNL1        0.0395
     11 C          64.5792   90.7601   13.8201 C.ar    1  UNL1        0.1677
     12 O          65.2894   91.1140   15.0931 O.3     1  UNL1       -0.5029
     13 H          65.7382   91.9332   15.1671 H       1  UNL1        0.2923
     14 C          64.4143   87.1105   14.6896 C.3     1  UNL1        0.2526
     15 O          63.8524   88.4912   14.8563 O.3     1  UNL1       -0.4684
     16 C          60.3242   88.3799    9.2963 C.3     1  UNL1        0.0364
     17 C          59.8287   88.5231    7.8877 C.3     1  UNL1        0.1375
     18 O          58.6015   87.7826    7.4454 O.3     1  UNL1       -0.3820
     19 H          58.7769   86.8287    7.4596 H       1  UNL1        0.2104
     20 C          60.1874   87.0675   10.0097 C.3     1  UNL1        0.0290
     21 C          61.3262   86.0912   10.0089 C.ar    1  UNL1       -0.0189
     22 C          62.0730   85.8109    8.7386 C.ar    1  UNL1       -0.0010
     23 C          63.2118   84.8347    8.7377 C.ar    1  UNL1        0.0395
     24 C          63.6038   84.1387   10.0073 C.ar    1  UNL1        0.1677
     25 O          64.7427   83.1624   10.0065 O.3     1  UNL1       -0.5029
     26 C          62.8571   84.4189   11.2777 C.ar    1  UNL1        0.1718
     27 C          61.7183   85.3952   11.2785 C.ar    1  UNL1        0.0358
     28 H          65.2091   82.9873    9.2130 H       1  UNL1        0.2923
     29 O          63.2492   83.7229   12.5473 O.3     1  UNL1       -0.4684
     30 C          62.5443   82.4654   12.9616 C.3     1  UNL1        0.2526
@<TRIPOS>BOND
     1    14    15    1
     2    15     6    1
     3     6     7   ar
     4     7     8   ar
     5     8     5    1
     6     1     5    1
     7     1     2    1
     8     2     3    1
     9     1    16    1
    10    16    17    1
    11    17    18    1
    12    16    20    1
    13    20    21    1
    14    21    22   ar
    15    22    23   ar
    16    23    24   ar
    17    24    25    1
    18    24    26   ar
    19    26    29    1
    20    29    30    1
    21    26    27   ar
    22     8     9   ar
    23     9    10   ar
    24    10    11   ar
    25    11    12    1
    26    11     6   ar
    27    27    21   ar
    28     3     4    1
    29    18    19    1
    30    25    28    1
    31    12    13    1
@<TRIPOS>MOLECULE
*****
 30 31 0 0 0
SMALL
GASTEIGER

@<TRIPOS>ATOM
      1 C          63.4462   84.2199   12.4804 C.3     1  UNL1        0.0364
      2 C          64.6764   83.6225   11.8639 C.3     1  UNL1        0.1375
      3 O          64.6388   83.1199   10.4512 O.3     1  UNL1       -0.3820
      4 H          64.0424   82.3570   10.3952 H       1  UNL1        0.2104
      5 C          62.2542   84.5314   11.6249 C.3     1  UNL1        0.0290
      6 C          60.9391   87.5482    9.4069 C.ar    1  UNL1        0.1718
      7 C          61.1446   86.1572    9.9291 C.ar    1  UNL1        0.0358
      8 C          62.0488   85.9225   11.1027 C.ar    1  UNL1       -0.0189
      9 C          62.7476   87.0789   11.7541 C.ar    1  UNL1       -0.0010
     10 C          62.5421   88.4700   11.2319 C.ar    1  UNL1        0.0395
     11 C          61.6379   88.7046   10.0583 C.ar    1  UNL1        0.1677
     12 O          61.4325   90.0958    9.5362 O.3     1  UNL1       -0.5029
     13 H          61.8690   90.8182    9.9431 H       1  UNL1        0.2923
     14 C          59.1731   86.6695    7.7161 C.3     1  UNL1        0.2526
     15 O          60.0349   87.7829    8.2333 O.3     1  UNL1       -0.4684
     16 C          63.4081   84.5056   13.9524 C.3     1  UNL1        0.0364
     17 C          62.3148   83.9267   14.8008 C.3     1  UNL1        0.1375
     18 O          62.5227   82.6165   15.5007 O.3     1  UNL1       -0.3820
     19 H          62.6097   81.9088   14.8430 H       1  UNL1        0.2104
     20 C          64.4633   85.3703   14.5762 C.3     1  UNL1        0.0290
     21 C          64.0925   86.6991   15.1651 C.ar    1  UNL1       -0.0189
     22 C          63.3926   86.7631   16.4903 C.ar    1  UNL1       -0.0010
     23 C          63.0218   88.0918   17.0792 C.ar    1  UNL1        0.0395
     24 C          63.3508   89.3566   16.3430 C.ar    1  UNL1        0.1677
     25 O          62.9800   90.6854   16.9319 O.3     1  UNL1       -0.5029
     26 C          64.0507   89.2926   15.0178 C.ar    1  UNL1        0.1718
     27 C          64.4215   87.9639   14.4289 C.ar    1  UNL1        0.0358
     28 H          62.5428   90.7254   17.7597 H       1  UNL1        0.2923
     29 O          64.3797   90.5574   14.2816 O.3     1  UNL1       -0.4684
     30 C          65.6217   91.3245   14.6264 C.3     1  UNL1        0.2526
@<TRIPOS>BOND
     1    14    15    1
     2    15     6    1
     3     6     7   ar
     4     7     8   ar
     5     8     5    1
     6     1     5    1
     7     1     2    1
     8     2     3    1
     9     1    16    1
    10    16    17    1
    11    17    18    1
    12    16    20    1
    13    20    21    1
    14    21    22   ar
    15    22    23   ar
    16    23    24   ar
    17    24    25    1
    18    24    26   ar
    19    26    29    1
    20    29    30    1
    21    26    27   ar
    22     8     9   ar
    23     9    10   ar
    24    10    11   ar
    25    11    12    1
    26    11     6   ar
    27    27    21   ar
    28     3     4    1
    29    18    19    1
    30    25    28    1
    31    12    13    1
@<TRIPOS>MOLECULE
*****
 30 31 0 0 0
SMALL
GASTEIGER

@<TRIPOS>ATOM
      1 C          63.4140   86.7647   16.3808 C.3     1  UNL1        0.0364
      2 C          62.3375   86.4176   17.3661 C.3     1  UNL1        0.1375
      3 O          60.9173   86.2733   16.9055 O.3     1  UNL1       -0.3820
      4 H          60.5873   87.1331   16.6007 H       1  UNL1        0.2104
      5 C          64.3437   85.6996   15.8797 C.3     1  UNL1        0.0290
      6 C          62.8288   82.4670   14.1461 C.ar    1  UNL1        0.1718
      7 C          63.2865   83.4237   15.2068 C.ar    1  UNL1        0.0358
      8 C          63.8860   84.7428   14.8189 C.ar    1  UNL1       -0.0189
      9 C          64.0277   85.1053   13.3703 C.ar    1  UNL1       -0.0010
     10 C          63.5700   84.1485   12.3096 C.ar    1  UNL1        0.0395
     11 C          62.9705   82.8294   12.6975 C.ar    1  UNL1        0.1677
     12 O          62.5127   81.8726   11.6367 O.3     1  UNL1       -0.5029
     13 H          62.6013   82.0991   10.7318 H       1  UNL1        0.2923
     14 C          60.8096   80.8322   14.1668 C.3     1  UNL1        0.2526
     15 O          62.2293   81.1478   14.5340 O.3     1  UNL1       -0.4684
     16 C          63.5606   88.1767   15.8966 C.3     1  UNL1        0.0364
     17 C          62.7688   89.2763   16.5401 C.3     1  UNL1        0.1375
     18 O          63.3860   90.6294   16.7357 O.3     1  UNL1       -0.3820
     19 H          64.1167   90.5628   17.3702 H       1  UNL1        0.2104
     20 C          64.4991   88.4893   14.7689 C.3     1  UNL1        0.0290
     21 C          63.9864   89.1660   13.5322 C.ar    1  UNL1       -0.0189
     22 C          64.2845   90.6164   13.2926 C.ar    1  UNL1       -0.0010
     23 C          63.7719   91.2931   12.0559 C.ar    1  UNL1        0.0395
     24 C          62.9612   90.5193   11.0590 C.ar    1  UNL1        0.1677
     25 O          62.4485   91.1960    9.8223 O.3     1  UNL1       -0.5029
     26 C          62.6630   89.0689   11.2987 C.ar    1  UNL1        0.1718
     27 C          63.1756   88.3922   12.5353 C.ar    1  UNL1        0.0358
     28 H          62.6347   92.1020    9.6725 H       1  UNL1        0.2923
     29 O          61.8522   88.2952   10.3016 O.3     1  UNL1       -0.4684
     30 C          60.5332   87.7050   10.7039 C.3     1  UNL1        0.2526
@<TRIPOS>BOND
     1    14    15    1
     2    15     6    1
     3     6     7   ar
     4     7     8   ar
     5     8     5    1
     6     1     5    1
     7     1     2    1
     8     2     3    1
     9     1    16    1
    10    16    17    1
    11    17    18    1
    12    16    20    1
    13    20    21    1
    14    21    22   ar
    15    22    23   ar
    16    23    24   ar
    17    24    25    1
    18    24    26   ar
    19    26    29    1
    20    29    30    1
    21    26    27   ar
    22     8     9   ar
    23     9    10   ar
    24    10    11   ar
    25    11    12    1
    26    11     6   ar
    27    27    21   ar
    28     3     4    1
    29    18    19    1
    30    25    28    1
    31    12    13    1
@<TRIPOS>MOLECULE
*****
 30 31 0 0 0
SMALL
GASTEIGER

@<TRIPOS>ATOM
      1 C          60.2243   88.3978    8.7201 C.3     1  UNL1        0.0364
      2 C          59.7736   89.2634    7.5809 C.3     1  UNL1        0.1375
      3 O          58.5531   88.8903    6.7927 O.3     1  UNL1       -0.3820
      4 H          58.7183   88.0636    6.3129 H       1  UNL1        0.2104
      5 C          60.1052   88.8929   10.1310 C.3     1  UNL1        0.0290
      6 C          62.6293   90.1517   12.9229 C.ar    1  UNL1        0.1718
      7 C          61.4670   89.4659   12.2681 C.ar    1  UNL1        0.0358
      8 C          61.2676   89.5787   10.7857 C.ar    1  UNL1       -0.0189
      9 C          62.2305   90.3773    9.9581 C.ar    1  UNL1       -0.0010
     10 C          63.3928   91.0631   10.6128 C.ar    1  UNL1        0.0395
     11 C          63.5922   90.9503   12.0952 C.ar    1  UNL1        0.1677
     12 O          64.7545   91.6361   12.7500 O.3     1  UNL1       -0.5029
     13 H          65.3560   92.1350   12.2330 H       1  UNL1        0.2923
     14 C          63.9388   89.1902   14.9503 C.3     1  UNL1        0.2526
     15 O          62.8287   90.0389   14.4053 O.3     1  UNL1       -0.4684
     16 C          60.7940   87.0371    8.4483 C.3     1  UNL1        0.0364
     17 C          59.9187   85.9559    7.8871 C.3     1  UNL1        0.1375
     18 O          58.4681   86.2284    7.6199 O.3     1  UNL1       -0.3820
     19 H          58.0094   86.3893    8.4593 H       1  UNL1        0.2104
     20 C          62.2391   86.7576    8.7376 C.3     1  UNL1        0.0290
     21 C          62.6146   85.6683    9.6981 C.ar    1  UNL1       -0.0189
     22 C          63.3088   84.4355    9.1998 C.ar    1  UNL1       -0.0010
     23 C          63.6843   83.3462   10.1603 C.ar    1  UNL1        0.0395
     24 C          63.3656   83.4897   11.6189 C.ar    1  UNL1        0.1677
     25 O          63.7411   82.4004   12.5794 O.3     1  UNL1       -0.5029
     26 C          62.6714   84.7226   12.1172 C.ar    1  UNL1        0.1718
     27 C          62.2959   85.8118   11.1568 C.ar    1  UNL1        0.0358
     28 H          64.1747   81.6303   12.2682 H       1  UNL1        0.2923
     29 O          62.3527   84.8661   13.5760 O.3     1  UNL1       -0.4684
     30 C          63.4574   85.0825   14.5672 C.3     1  UNL1        0.2526
@<TRIPOS>BOND
     1    14    15    1
     2    15     6    1
     3     6     7   ar
     4     7     8   ar
     5     8     5    1
     6     1     5    1
     7     1     2    1
     8     2     3    1
     9     1    16    1
    10    16    17    1
    11    17    18    1
    12    16    20    1
    13    20    21    1
    14    21    22   ar
    15    22    23   ar
    16    23    24   ar
    17    24    25    1
    18    24    26   ar
    19    26    29    1
    20    29    30    1
    21    26    27   ar
    22     8     9   ar
    23     9    10   ar
    24    10    11   ar
    25    11    12    1
    26    11     6   ar
    27    27    21   ar
    28     3     4    1
    29    18    19    1
    30    25    28    1
    31    12    13    1
@<TRIPOS>MOLECULE
*****
 30 31 0 0 0
SMALL
GASTEIGER

@<TRIPOS>ATOM
      1 C          63.1697   83.4214   12.5318 C.3     1  UNL1        0.0364
      2 C          62.5268   82.1816   11.9844 C.3     1  UNL1        0.1375
      3 O          63.1340   80.8378   12.2597 O.3     1  UNL1       -0.3820
      4 H          63.9986   80.7783   11.8241 H       1  UNL1        0.2104
      5 C          63.6874   84.4734   11.5963 C.3     1  UNL1        0.0290
      6 C          60.8612   87.1505   10.8243 C.ar    1  UNL1        0.1718
      7 C          61.8215   86.2812   11.5807 C.ar    1  UNL1        0.0358
      8 C          62.7271   85.3427   10.8398 C.ar    1  UNL1       -0.0189
      9 C          62.6724   85.2734    9.3424 C.ar    1  UNL1       -0.0010
     10 C          61.7121   86.1427    8.5860 C.ar    1  UNL1        0.0395
     11 C          60.8066   87.0812    9.3270 C.ar    1  UNL1        0.1677
     12 O          59.8462   87.9505    8.5705 O.3     1  UNL1       -0.5029
     13 H          59.8121   87.9072    7.6351 H       1  UNL1        0.2923
     14 C          60.2785   89.5527   11.6242 C.3     1  UNL1        0.2526
     15 O          59.9556   88.0891   11.5653 O.3     1  UNL1       -0.4684
     16 C          63.2947   83.6092   14.0147 C.3     1  UNL1        0.0364
     17 C          62.3275   82.9328   14.9406 C.3     1  UNL1        0.1375
     18 O          62.2225   81.4366   14.9530 O.3     1  UNL1       -0.3820
     19 H          61.8736   81.1299   14.1014 H       1  UNL1        0.2104
     20 C          64.3868   84.4735   14.5718 C.3     1  UNL1        0.0290
     21 C          64.0638   85.8349   15.1124 C.ar    1  UNL1       -0.0189
     22 C          63.3518   85.9709   16.4256 C.ar    1  UNL1       -0.0010
     23 C          63.0288   87.3323   16.9662 C.ar    1  UNL1        0.0395
     24 C          63.4178   88.5577   16.1936 C.ar    1  UNL1        0.1677
     25 O          63.0948   89.9192   16.7342 O.3     1  UNL1       -0.5029
     26 C          64.1298   88.4217   14.8804 C.ar    1  UNL1        0.1718
     27 C          64.4528   87.0603   14.3398 C.ar    1  UNL1        0.0358
     28 H          62.6500   90.0041   17.5545 H       1  UNL1        0.2923
     29 O          64.5189   89.6472   14.1077 O.3     1  UNL1       -0.4684
     30 C          63.4668   90.4649   13.4190 C.3     1  UNL1        0.2526
@<TRIPOS>BOND
     1    14    15    1
     2    15     6    1
     3     6     7   ar
     4     7     8   ar
     5     8     5    1
     6     1     5    1
     7     1     2    1
     8     2     3    1
     9     1    16    1
    10    16    17    1
    11    17    18    1
    12    16    20    1
    13    20    21    1
    14    21    22   ar
    15    22    23   ar
    16    23    24   ar
    17    24    25    1
    18    24    26   ar
    19    26    29    1
    20    29    30    1
    21    26    27   ar
    22     8     9   ar
    23     9    10   ar
    24    10    11   ar
    25    11    12    1
    26    11     6   ar
    27    27    21   ar
    28     3     4    1
    29    18    19    1
    30    25    28    1
    31    12    13    1
@<TRIPOS>MOLECULE
*****
 30 31 0 0 0
SMALL
GASTEIGER

@<TRIPOS>ATOM
      1 C          61.0735   89.5127   10.7505 C.3     1  UNL1        0.0364
      2 C          60.1927   90.1745   11.7685 C.3     1  UNL1        0.1375
      3 O          59.2224   91.2366   11.3436 O.3     1  UNL1       -0.3820
      4 H          59.7107   92.0111   11.0234 H       1  UNL1        0.2104
      5 C          62.4466   90.0535   10.4819 C.3     1  UNL1        0.0290
      6 C          65.0704   92.0101   12.7265 C.ar    1  UNL1        0.1718
      7 C          64.1644   91.6621   11.5828 C.ar    1  UNL1        0.0358
      8 C          63.3526   90.4015   11.6257 C.ar    1  UNL1       -0.0189
      9 C          63.4469   89.4887   12.8122 C.ar    1  UNL1       -0.0010
     10 C          64.3529   89.8367   13.9559 C.ar    1  UNL1        0.0395
     11 C          65.1646   91.0973   13.9130 C.ar    1  UNL1        0.1677
     12 O          66.0707   91.4452   15.0568 O.3     1  UNL1       -0.5029
     13 H          66.1295   90.8751   15.7980 H       1  UNL1        0.2923
     14 C          66.0479   94.0124   11.3904 C.3     1  UNL1        0.2526
     15 O          65.8821   93.2707   12.6836 O.3     1  UNL1       -0.4684
     16 C          60.5813   88.3102   10.0012 C.3     1  UNL1        0.0364
     17 C          60.2047   88.4305    8.5541 C.3     1  UNL1        0.1375
     18 O          60.0530   89.7854    7.9287 O.3     1  UNL1       -0.3820
     19 H          59.2995   90.2448    8.3313 H       1  UNL1        0.2104
     20 C          60.4655   86.9873   10.6988 C.3     1  UNL1        0.0290
     21 C          61.5593   85.9698   10.5634 C.ar    1  UNL1       -0.0189
     22 C          62.1564   85.6851    9.2172 C.ar    1  UNL1       -0.0010
     23 C          63.2502   84.6677    9.0818 C.ar    1  UNL1        0.0395
     24 C          63.7469   83.9349   10.2927 C.ar    1  UNL1        0.1677
     25 O          64.8407   82.9174   10.1573 O.3     1  UNL1       -0.5029
     26 C          63.1498   84.2196   11.6389 C.ar    1  UNL1        0.1718
     27 C          62.0560   85.2370   11.7743 C.ar    1  UNL1        0.0358
     28 H          65.2137   82.7395    9.3163 H       1  UNL1        0.2923
     29 O          63.6465   83.4867   12.8498 O.3     1  UNL1       -0.4684
     30 C          63.7537   84.1986   14.1658 C.3     1  UNL1        0.2526
@<TRIPOS>BOND
     1    14    15    1
     2    15     6    1
     3     6     7   ar
     4     7     8   ar
     5     8     5    1
     6     1     5    1
     7     1     2    1
     8     2     3    1
     9     1    16    1
    10    16    17    1
    11    17    18    1
    12    16    20    1
    13    20    21    1
    14    21    22   ar
    15    22    23   ar
    16    23    24   ar
    17    24    25    1
    18    24    26   ar
    19    26    29    1
    20    29    30    1
    21    26    27   ar
    22     8     9   ar
    23     9    10   ar
    24    10    11   ar
    25    11    12    1
    26    11     6   ar
    27    27    21   ar
    28     3     4    1
    29    18    19    1
    30    25    28    1
    31    12    13    1
@<TRIPOS>MOLECULE
*****
 30 31 0 0 0
SMALL
GASTEIGER

@<TRIPOS>ATOM
      1 C          60.8364   90.0072   10.1581 C.3     1  UNL1        0.0364
      2 C          60.0231   90.9130   11.0346 C.3     1  UNL1        0.1375
      3 O          59.1655   90.3341   12.1206 O.3     1  UNL1       -0.3820
      4 H          58.4528   89.8087   11.7244 H       1  UNL1        0.2104
      5 C          62.3167   90.2149   10.0336 C.3     1  UNL1        0.0290
      6 C          63.8845   89.7363   13.6480 C.ar    1  UNL1        0.1718
      7 C          63.0542   89.5024   12.4209 C.ar    1  UNL1        0.0358
      8 C          63.1471   90.4488   11.2608 C.ar    1  UNL1       -0.0189
      9 C          64.0703   91.6292   11.3279 C.ar    1  UNL1       -0.0010
     10 C          64.9005   91.8631   12.5550 C.ar    1  UNL1        0.0395
     11 C          64.8077   90.9167   13.7150 C.ar    1  UNL1        0.1677
     12 O          65.6380   91.1506   14.9422 O.3     1  UNL1       -0.5029
     13 H          66.2147   91.8880   14.9841 H       1  UNL1        0.2923
     14 C          64.4291   87.4348   14.7233 C.3     1  UNL1        0.2526
     15 O          63.7916   88.7899   14.8080 O.3     1  UNL1       -0.4684
     16 C          60.1694   88.8938    9.4062 C.3     1  UNL1        0.0364
     17 C          59.6992   89.1153    7.9991 C.3     1  UNL1        0.1375
     18 O          58.6133   88.2533    7.4267 O.3     1  UNL1       -0.3820
     19 H          58.9320   87.3404    7.3495 H       1  UNL1        0.2104
     20 C          59.9725   87.5589   10.0614 C.3     1  UNL1        0.0290
     21 C          61.0388   86.5088    9.9593 C.ar    1  UNL1       -0.0189
     22 C          61.6120   85.8986   11.2039 C.ar    1  UNL1       -0.0010
     23 C          62.6783   84.8485   11.1020 C.ar    1  UNL1        0.0395
     24 C          63.1714   84.4088    9.7554 C.ar    1  UNL1        0.1677
     25 O          64.2377   83.3587    9.6533 O.3     1  UNL1       -0.5029
     26 C          62.5982   85.0190    8.5107 C.ar    1  UNL1        0.1718
     27 C          61.5319   86.0690    8.6127 C.ar    1  UNL1        0.0358
     28 H          64.5958   82.9775   10.4308 H       1  UNL1        0.2923
     29 O          63.0914   84.5792    7.1641 O.3     1  UNL1       -0.4684
     30 C          62.1211   84.3844    6.0369 C.3     1  UNL1        0.2526
@<TRIPOS>BOND
     1    14    15    1
     2    15     6    1
     3     6     7   ar
     4     7     8   ar
     5     8     5    1
     6     1     5    1
     7     1     2    1
     8     2     3    1
     9     1    16    1
    10    16    17    1
    11    17    18    1
    12    16    20    1
    13    20    21    1
    14    21    22   ar
    15    22    23   ar
    16    23    24   ar
    17    24    25    1
    18    24    26   ar
    19    26    29    1
    20    29    30    1
    21    26    27   ar
    22     8     9   ar
    23     9    10   ar
    24    10    11   ar
    25    11    12    1
    26    11     6   ar
    27    27    21   ar
    28     3     4    1
    29    18    19    1
    30    25    28    1
    31    12    13    1
