@<TRIPOS>MOLECULE
*****
 30 33 0 0 0
SMALL
GASTEIGER

@<TRIPOS>ATOM
      1 C          66.2992   92.3868   16.4484 C.3     1  UNL1        0.0518
      2 C          65.7542   92.1644   15.0687 C.ar    1  UNL1        0.0568
      3 N          64.7360   91.0893   14.8288 N.ar    1  UNL1       -0.2456
      4 C          64.1910   90.8669   13.4492 C.ar    1  UNL1        0.1322
      5 C          64.6641   91.7196   12.3094 C.ar    1  UNL1        0.0200
      6 C          65.6823   92.7946   12.5492 C.ar    1  UNL1       -0.0015
      7 C          66.2273   93.0170   13.9289 C.ar    1  UNL1        0.0068
      8 C          63.9520   91.2707   11.0679 C.3     1  UNL1        0.1267
      9 N          63.0387   90.1406   11.4404 N.am    1  UNL1       -0.2496
     10 C          63.1864   89.8910   12.9121 C.2     1  UNL1        0.2705
     11 O          62.4575   88.8486   13.7071 O.2     1  UNL1       -0.2679
     12 C          66.1555   93.6474   11.4094 C.ar    1  UNL1        0.0102
     13 C          65.5160   94.9799   11.1539 C.ar    1  UNL1        0.0017
     14 C          65.9891   95.8327   10.0142 C.ar    1  UNL1        0.0114
     15 C          67.1017   95.3528    9.1301 C.ar    1  UNL1        0.0585
     16 CL         67.5749   96.2056    7.9903 Cl      1  UNL1       -0.0822
     17 C          67.7412   94.0202    9.3855 C.ar    1  UNL1        0.0228
     18 C          67.2681   93.1675   10.5253 C.ar    1  UNL1        0.0585
     19 CL         67.9076   91.8349   10.7808 Cl      1  UNL1       -0.0822
     20 C          62.1362   89.3915   10.5054 C.ar    1  UNL1        0.0545
     21 C          60.9886   90.0965    9.8450 C.ar    1  UNL1        0.0158
     22 C          60.0861   89.3473    8.9100 C.ar    1  UNL1        0.0127
     23 C          60.3311   87.8932    8.6353 C.ar    1  UNL1        0.0578
     24 CL         59.4286   87.1441    7.7003 Cl      1  UNL1       -0.0822
     25 C          61.4787   87.1882    9.2956 C.ar    1  UNL1        0.0127
     26 C          62.3812   87.9373   10.2307 C.ar    1  UNL1        0.0158
     27 C          67.2456   94.0921   14.1688 C.3     1  UNL1        0.0934
     28 N          68.5116   93.7746   14.9080 N.3     1  UNL1       -0.3174
     29 H          68.2898   93.5312   15.8733 H       1  UNL1        0.1192
     30 H          69.1261   94.5887   14.8952 H       1  UNL1        0.1192
@<TRIPOS>BOND
     1     1     2    1
     2     2     3   ar
     3     3     4   ar
     4     4     5   ar
     5     5     6   ar
     6     6    12    1
     7    12    13   ar
     8    13    14   ar
     9    14    15   ar
    10    15    16    1
    11    15    17   ar
    12    17    18   ar
    13    18    19    1
    14     6     7   ar
    15     7    27    1
    16    27    28    1
    17     5     8    1
    18     8     9    1
    19     9    20    1
    20    20    21   ar
    21    21    22   ar
    22    22    23   ar
    23    23    24    1
    24    23    25   ar
    25    25    26   ar
    26     9    10   am
    27    10    11    2
    28     7     2   ar
    29    26    20   ar
    30    10     4    1
    31    18    12   ar
    32    28    29    1
    33    28    30    1
@<TRIPOS>MOLECULE
*****
 30 33 0 0 0
SMALL
GASTEIGER

@<TRIPOS>ATOM
      1 C          59.0909   88.1957    7.3787 C.3     1  UNL1        0.0518
      2 C          60.1068   88.1576    8.4818 C.ar    1  UNL1        0.0568
      3 N          60.5271   89.4286    9.1584 N.ar    1  UNL1       -0.2456
      4 C          61.5429   89.3905   10.2614 C.ar    1  UNL1        0.1322
      5 C          62.1384   88.0815   10.6878 C.ar    1  UNL1        0.0200
      6 C          61.7181   86.8105   10.0112 C.ar    1  UNL1       -0.0015
      7 C          60.7022   86.8486    8.9081 C.ar    1  UNL1        0.0068
      8 C          63.1111   88.3539   11.7967 C.3     1  UNL1        0.1267
      9 N          63.1167   89.8314   12.0557 N.am    1  UNL1       -0.2496
     10 C          62.1475   90.4720   11.1069 C.2     1  UNL1        0.2705
     11 O          61.8375   91.9370   11.0189 O.2     1  UNL1       -0.2679
     12 C          62.3135   85.5013   10.4375 C.ar    1  UNL1        0.0102
     13 C          61.9785   84.9276   11.7823 C.ar    1  UNL1        0.0017
     14 C          62.5739   83.6185   12.2087 C.ar    1  UNL1        0.0114
     15 C          63.5043   82.8832   11.2902 C.ar    1  UNL1        0.0585
     16 CL         64.0997   81.5741   11.7166 Cl      1  UNL1       -0.0822
     17 C          63.8394   83.4570    9.9454 C.ar    1  UNL1        0.0228
     18 C          63.2440   84.7661    9.5190 C.ar    1  UNL1        0.0585
     19 CL         63.5791   85.3398    8.1742 Cl      1  UNL1       -0.0822
     20 C          63.9459   90.5432   13.0832 C.ar    1  UNL1        0.0545
     21 C          63.6878   90.3167   14.5434 C.ar    1  UNL1        0.0158
     22 C          64.5170   91.0286   15.5708 C.ar    1  UNL1        0.0127
     23 C          65.6043   91.9670   15.1381 C.ar    1  UNL1        0.0578
     24 CL         66.4335   92.6789   16.1656 Cl      1  UNL1       -0.0822
     25 C          65.8624   92.1935   13.6780 C.ar    1  UNL1        0.0127
     26 C          65.0331   91.4816   12.6505 C.ar    1  UNL1        0.0158
     27 C          60.2818   85.5775    8.2314 C.3     1  UNL1        0.0934
     28 N          60.6412   85.3383    6.7949 N.3     1  UNL1       -0.3174
     29 H          60.1551   86.0142    6.2057 H       1  UNL1        0.1192
     30 H          60.3646   84.3935    6.5280 H       1  UNL1        0.1192
@<TRIPOS>BOND
     1     1     2    1
     2     2     3   ar
     3     3     4   ar
     4     4     5   ar
     5     5     6   ar
     6     6    12    1
     7    12    13   ar
     8    13    14   ar
     9    14    15   ar
    10    15    16    1
    11    15    17   ar
    12    17    18   ar
    13    18    19    1
    14     6     7   ar
    15     7    27    1
    16    27    28    1
    17     5     8    1
    18     8     9    1
    19     9    20    1
    20    20    21   ar
    21    21    22   ar
    22    22    23   ar
    23    23    24    1
    24    23    25   ar
    25    25    26   ar
    26     9    10   am
    27    10    11    2
    28     7     2   ar
    29    26    20   ar
    30    10     4    1
    31    18    12   ar
    32    28    29    1
    33    28    30    1
@<TRIPOS>MOLECULE
*****
 30 33 0 0 0
SMALL
GASTEIGER

@<TRIPOS>ATOM
      1 C          64.9628   90.6057   14.5149 C.3     1  UNL1        0.0518
      2 C          64.3136   89.4027   13.8975 C.ar    1  UNL1        0.0568
      3 N          64.5457   88.0415   14.4835 N.ar    1  UNL1       -0.2456
      4 C          63.8964   86.8385   13.8661 C.ar    1  UNL1        0.1322
      5 C          63.0151   86.9966   12.6627 C.ar    1  UNL1        0.0200
      6 C          62.7830   88.3577   12.0766 C.ar    1  UNL1       -0.0015
      7 C          63.4323   89.5608   12.6941 C.ar    1  UNL1        0.0068
      8 C          62.5137   85.6375   12.2735 C.3     1  UNL1        0.1267
      9 N          63.0852   84.6394   13.2365 N.am    1  UNL1       -0.2496
     10 C          63.9397   85.3817   14.2208 C.2     1  UNL1        0.2705
     11 O          64.7035   84.7738   15.3597 O.2     1  UNL1       -0.2679
     12 C          61.9017   88.5159   10.8731 C.ar    1  UNL1        0.0102
     13 C          62.3075   87.9111    9.5618 C.ar    1  UNL1        0.0017
     14 C          61.4262   88.0693    8.3583 C.ar    1  UNL1        0.0114
     15 C          60.1393   88.8321    8.4662 C.ar    1  UNL1        0.0585
     16 CL         59.2580   88.9902    7.2627 Cl      1  UNL1       -0.0822
     17 C          59.7335   89.4369    9.7775 C.ar    1  UNL1        0.0228
     18 C          60.6147   89.2787   10.9810 C.ar    1  UNL1        0.0585
     19 CL         60.2090   89.8835   12.2924 Cl      1  UNL1       -0.0822
     20 C          62.8443   83.1590   13.2184 C.ar    1  UNL1        0.0545
     21 C          62.1260   82.5020   14.3596 C.ar    1  UNL1        0.0158
     22 C          61.8852   81.0215   14.3414 C.ar    1  UNL1        0.0127
     23 C          62.3627   80.1981   13.1821 C.ar    1  UNL1        0.0578
     24 CL         62.1219   78.7177   13.1640 Cl      1  UNL1       -0.0822
     25 C          63.0811   80.8551   12.0409 C.ar    1  UNL1        0.0127
     26 C          63.3218   82.3356   12.0591 C.ar    1  UNL1        0.0158
     27 C          63.2002   90.9220   12.1080 C.3     1  UNL1        0.0934
     28 N          63.9886   91.3682   10.9125 N.3     1  UNL1       -0.3174
     29 H          64.9721   91.4577   11.1679 H       1  UNL1        0.1192
     30 H          63.6374   92.2702   10.5909 H       1  UNL1        0.1192
@<TRIPOS>BOND
     1     1     2    1
     2     2     3   ar
     3     3     4   ar
     4     4     5   ar
     5     5     6   ar
     6     6    12    1
     7    12    13   ar
     8    13    14   ar
     9    14    15   ar
    10    15    16    1
    11    15    17   ar
    12    17    18   ar
    13    18    19    1
    14     6     7   ar
    15     7    27    1
    16    27    28    1
    17     5     8    1
    18     8     9    1
    19     9    20    1
    20    20    21   ar
    21    21    22   ar
    22    22    23   ar
    23    23    24    1
    24    23    25   ar
    25    25    26   ar
    26     9    10   am
    27    10    11    2
    28     7     2   ar
    29    26    20   ar
    30    10     4    1
    31    18    12   ar
    32    28    29    1
    33    28    30    1
@<TRIPOS>MOLECULE
*****
 30 33 0 0 0
SMALL
GASTEIGER

@<TRIPOS>ATOM
      1 C          66.1098   92.6999   16.6484 C.3     1  UNL1        0.0518
      2 C          65.6317   92.2851   15.2884 C.ar    1  UNL1        0.0568
      3 N          64.4343   91.3916   15.1547 N.ar    1  UNL1       -0.2456
      4 C          63.9561   90.9768   13.7949 C.ar    1  UNL1        0.1322
      5 C          64.6753   91.4555   12.5687 C.ar    1  UNL1        0.0200
      6 C          65.8726   92.3491   12.7023 C.ar    1  UNL1       -0.0015
      7 C          66.3508   92.7638   14.0623 C.ar    1  UNL1        0.0068
      8 C          63.9775   90.8851   11.3696 C.3     1  UNL1        0.1267
      9 N          62.8270   90.0538   11.8548 N.am    1  UNL1       -0.2496
     10 C          62.8138   90.1105   13.3537 C.2     1  UNL1        0.2705
     11 O          61.8308   89.4217   14.2534 O.2     1  UNL1       -0.2679
     12 C          66.5919   92.8279   11.4761 C.ar    1  UNL1        0.0102
     13 C          67.4940   91.8952   10.7237 C.ar    1  UNL1        0.0017
     14 C          68.2133   92.3739    9.4975 C.ar    1  UNL1        0.0114
     15 C          68.0304   93.7853    9.0239 C.ar    1  UNL1        0.0585
     16 CL         68.7497   94.2640    7.7977 Cl      1  UNL1       -0.0822
     17 C          67.1282   94.7180    9.7763 C.ar    1  UNL1        0.0228
     18 C          66.4090   94.2393   11.0025 C.ar    1  UNL1        0.0585
     19 CL         65.5068   95.1720   11.7549 Cl      1  UNL1       -0.0822
     20 C          61.8596   89.2985   10.9925 C.ar    1  UNL1        0.0545
     21 C          61.7496   87.8077   11.1171 C.ar    1  UNL1        0.0158
     22 C          60.7821   87.0524   10.2548 C.ar    1  UNL1        0.0127
     23 C          59.9247   87.7878    9.2678 C.ar    1  UNL1        0.0578
     24 CL         58.9573   87.0325    8.4055 Cl      1  UNL1       -0.0822
     25 C          60.0347   89.2786    9.1432 C.ar    1  UNL1        0.0127
     26 C          61.0022   90.0339   10.0056 C.ar    1  UNL1        0.0158
     27 C          67.5483   93.6574   14.1960 C.3     1  UNL1        0.0934
     28 N          68.8316   93.1137   14.7504 N.3     1  UNL1       -0.3174
     29 H          68.6984   92.8593   15.7291 H       1  UNL1        0.1192
     30 H          69.5603   93.8239   14.6799 H       1  UNL1        0.1192
@<TRIPOS>BOND
     1     1     2    1
     2     2     3   ar
     3     3     4   ar
     4     4     5   ar
     5     5     6   ar
     6     6    12    1
     7    12    13   ar
     8    13    14   ar
     9    14    15   ar
    10    15    16    1
    11    15    17   ar
    12    17    18   ar
    13    18    19    1
    14     6     7   ar
    15     7    27    1
    16    27    28    1
    17     5     8    1
    18     8     9    1
    19     9    20    1
    20    20    21   ar
    21    21    22   ar
    22    22    23   ar
    23    23    24    1
    24    23    25   ar
    25    25    26   ar
    26     9    10   am
    27    10    11    2
    28     7     2   ar
    29    26    20   ar
    30    10     4    1
    31    18    12   ar
    32    28    29    1
    33    28    30    1
@<TRIPOS>MOLECULE
*****
 30 33 0 0 0
SMALL
GASTEIGER

@<TRIPOS>ATOM
      1 C          66.4042   93.5256   13.4429 C.3     1  UNL1        0.0518
      2 C          65.4451   92.3965   13.2077 C.ar    1  UNL1        0.0568
      3 N          64.8273   92.2069   11.8541 N.ar    1  UNL1       -0.2456
      4 C          63.8682   91.0778   11.6188 C.ar    1  UNL1        0.1322
      5 C          63.5270   90.1382   12.7372 C.ar    1  UNL1        0.0200
      6 C          64.1449   90.3278   14.0908 C.ar    1  UNL1       -0.0015
      7 C          65.1040   91.4569   14.3260 C.ar    1  UNL1        0.0068
      8 C          62.5557   89.1238   12.2104 C.3     1  UNL1        0.1267
      9 N          62.2966   89.4365   10.7664 N.am    1  UNL1       -0.2496
     10 C          63.1078   90.6441   10.4008 C.2     1  UNL1        0.2705
     11 O          63.1509   91.3024    9.0537 O.2     1  UNL1       -0.2679
     12 C          63.8038   89.3882   15.2093 C.ar    1  UNL1        0.0102
     13 C          63.2593   89.9249   16.4998 C.ar    1  UNL1        0.0017
     14 C          62.9181   88.9854   17.6183 C.ar    1  UNL1        0.0114
     15 C          63.1215   87.5093   17.4462 C.ar    1  UNL1        0.0585
     16 CL         62.7804   86.5698   18.5647 Cl      1  UNL1       -0.0822
     17 C          63.6660   86.9726   16.1556 C.ar    1  UNL1        0.0228
     18 C          64.0071   87.9121   15.0372 C.ar    1  UNL1        0.0585
     19 CL         64.5516   87.3754   13.7466 Cl      1  UNL1       -0.0822
     20 C          61.3862   88.6752    9.8491 C.ar    1  UNL1        0.0545
     21 C          61.4664   87.1787    9.7850 C.ar    1  UNL1        0.0158
     22 C          60.5559   86.4175    8.8676 C.ar    1  UNL1        0.0127
     23 C          59.5653   87.1526    8.0143 C.ar    1  UNL1        0.0578
     24 CL         58.6548   86.3913    7.0970 Cl      1  UNL1       -0.0822
     25 C          59.4850   88.6491    8.0784 C.ar    1  UNL1        0.0127
     26 C          60.3955   89.4103    8.9958 C.ar    1  UNL1        0.0158
     27 C          65.7219   91.6465   15.6797 C.3     1  UNL1        0.0934
     28 N          65.2603   92.7661   16.5648 N.3     1  UNL1       -0.3174
     29 H          65.5056   93.6597   16.1385 H       1  UNL1        0.1192
     30 H          65.7128   92.6882   17.4756 H       1  UNL1        0.1192
@<TRIPOS>BOND
     1     1     2    1
     2     2     3   ar
     3     3     4   ar
     4     4     5   ar
     5     5     6   ar
     6     6    12    1
     7    12    13   ar
     8    13    14   ar
     9    14    15   ar
    10    15    16    1
    11    15    17   ar
    12    17    18   ar
    13    18    19    1
    14     6     7   ar
    15     7    27    1
    16    27    28    1
    17     5     8    1
    18     8     9    1
    19     9    20    1
    20    20    21   ar
    21    21    22   ar
    22    22    23   ar
    23    23    24    1
    24    23    25   ar
    25    25    26   ar
    26     9    10   am
    27    10    11    2
    28     7     2   ar
    29    26    20   ar
    30    10     4    1
    31    18    12   ar
    32    28    29    1
    33    28    30    1
@<TRIPOS>MOLECULE
*****
 30 33 0 0 0
SMALL
GASTEIGER

@<TRIPOS>ATOM
      1 C          64.4246   89.2542   14.5371 C.3     1  UNL1        0.0518
      2 C          63.8790   88.1438   13.6889 C.ar    1  UNL1        0.0568
      3 N          64.2249   86.7190   14.0054 N.ar    1  UNL1       -0.2456
      4 C          63.6794   85.6085   13.1573 C.ar    1  UNL1        0.1322
      5 C          62.7880   85.9229   11.9926 C.ar    1  UNL1        0.0200
      6 C          62.4420   87.3478   11.6761 C.ar    1  UNL1       -0.0015
      7 C          62.9876   88.4582   12.5243 C.ar    1  UNL1        0.0068
      8 C          62.4029   84.6281   11.3407 C.3     1  UNL1        0.1267
      9 N          63.0563   83.5133   12.1025 N.am    1  UNL1       -0.2496
     10 C          63.8453   84.1193   13.2252 C.2     1  UNL1        0.2705
     11 O          64.6575   83.3679   14.2380 O.2     1  UNL1       -0.2679
     12 C          61.5506   87.6623   10.5114 C.ar    1  UNL1        0.0102
     13 C          60.3640   88.5611   10.6964 C.ar    1  UNL1        0.0017
     14 C          59.4725   88.8756    9.5318 C.ar    1  UNL1        0.0114
     15 C          59.7676   88.2913    8.1822 C.ar    1  UNL1        0.0585
     16 CL         58.8761   88.6059    7.0176 Cl      1  UNL1       -0.0822
     17 C          60.9542   87.3925    7.9972 C.ar    1  UNL1        0.0228
     18 C          61.8457   87.0780    9.1618 C.ar    1  UNL1        0.0585
     19 CL         63.0322   86.1792    8.9767 Cl      1  UNL1       -0.0822
     20 C          62.9411   82.0496   11.7956 C.ar    1  UNL1        0.0545
     21 C          63.1871   81.5540   10.4014 C.ar    1  UNL1        0.0158
     22 C          63.0718   80.0902   10.0945 C.ar    1  UNL1        0.0127
     23 C          62.7106   79.1221   11.1818 C.ar    1  UNL1        0.0578
     24 CL         62.5954   77.6583   10.8749 Cl      1  UNL1       -0.0822
     25 C          62.4647   79.6177   12.5760 C.ar    1  UNL1        0.0127
     26 C          62.5799   81.0815   12.8829 C.ar    1  UNL1        0.0158
     27 C          62.6417   89.8831   12.2078 C.3     1  UNL1        0.0934
     28 N          63.3513   90.5981   11.0964 N.3     1  UNL1       -0.3174
     29 H          64.3356   90.7112   11.3389 H       1  UNL1        0.1192
     30 H          62.9278   91.5155   10.9573 H       1  UNL1        0.1192
@<TRIPOS>BOND
     1     1     2    1
     2     2     3   ar
     3     3     4   ar
     4     4     5   ar
     5     5     6   ar
     6     6    12    1
     7    12    13   ar
     8    13    14   ar
     9    14    15   ar
    10    15    16    1
    11    15    17   ar
    12    17    18   ar
    13    18    19    1
    14     6     7   ar
    15     7    27    1
    16    27    28    1
    17     5     8    1
    18     8     9    1
    19     9    20    1
    20    20    21   ar
    21    21    22   ar
    22    22    23   ar
    23    23    24    1
    24    23    25   ar
    25    25    26   ar
    26     9    10   am
    27    10    11    2
    28     7     2   ar
    29    26    20   ar
    30    10     4    1
    31    18    12   ar
    32    28    29    1
    33    28    30    1
