@<TRIPOS>MOLECULE
*****
 36 38 0 0 0
SMALL
GASTEIGER

@<TRIPOS>ATOM
      1 C          59.3872   93.0354    2.3994 C.2     1  UNL1       -0.0011
      2 C          59.6830   92.1506    3.5740 C.2     1  UNL1        0.0167
      3 C          61.0387   91.6624    3.9908 C.3     1  UNL1        0.0344
      4 C          60.8687   90.8088    5.2124 C.3     1  UNL1        0.0344
      5 C          59.4078   90.7693    5.5506 C.2     1  UNL1        0.0167
      6 C          58.7885   90.0303    6.6996 C.2     1  UNL1       -0.0011
      7 C          58.6751   91.5986    4.5380 C.2     1  UNL1        0.1877
      8 O          57.1943   91.8345    4.4967 O.2     1  UNL1       -0.2872
      9 C          61.5580   93.7623   -0.8424 C.ar    1  UNL1        0.0109
     10 C          60.4408   93.2858    0.0377 C.ar    1  UNL1       -0.0013
     11 C          60.5045   93.5119    1.5192 C.ar    1  UNL1       -0.0006
     12 C          61.6854   94.2146    2.1205 C.ar    1  UNL1       -0.0013
     13 C          62.8026   94.6911    1.2404 C.ar    1  UNL1        0.0109
     14 C          62.7389   94.4650   -0.2411 C.ar    1  UNL1        0.1256
     15 O          63.8562   94.9415   -1.1213 O.3     1  UNL1       -0.5061
     16 H          64.5939   95.3805   -0.7457 H       1  UNL1        0.2922
     17 C          60.2041   93.7454   -3.0597 C.3     1  UNL1        0.0048
     18 C          61.4943   93.5361   -2.3239 C.3     1  UNL1        0.0253
     19 C          62.7208   93.1007   -3.0696 C.3     1  UNL1        0.0048
     20 C          63.9836   95.3938    1.8417 C.3     1  UNL1        0.0253
     21 C          65.2492   94.6358    2.1129 C.3     1  UNL1        0.0048
     22 C          63.8990   96.8546    2.1717 C.3     1  UNL1        0.0048
     23 C          59.6530   89.2381    7.6351 C.ar    1  UNL1       -0.0006
     24 C          60.1422   87.8781    7.2340 C.ar    1  UNL1       -0.0013
     25 C          61.0066   87.0860    8.1695 C.ar    1  UNL1        0.0109
     26 C          61.3819   87.6538    9.5061 C.ar    1  UNL1        0.1256
     27 O          62.2464   86.8617   10.4417 O.3     1  UNL1       -0.5061
     28 C          60.8927   89.0139    9.9073 C.ar    1  UNL1        0.0109
     29 C          60.0282   89.8060    8.9717 C.ar    1  UNL1       -0.0013
     30 H          62.5521   86.0121   10.1911 H       1  UNL1        0.2922
     31 C          61.4959   85.7259    7.7683 C.3     1  UNL1        0.0253
     32 C          62.8503   85.2558    8.2095 C.3     1  UNL1        0.0048
     33 C          60.6307   84.8360    6.9260 C.3     1  UNL1        0.0048
     34 C          61.2680   89.5818   11.2440 C.3     1  UNL1        0.0253
     35 C          60.2408   89.6788   12.3328 C.3     1  UNL1        0.0048
     36 C          62.6704   90.0527   11.4918 C.3     1  UNL1        0.0048
@<TRIPOS>BOND
     1    17    18    1
     2    18    19    1
     3    18     9    1
     4     9    10   ar
     5    10    11   ar
     6    11     1    1
     7     1     2    2
     8     2     3    1
     9     3     4    1
    10     4     5    1
    11     5     6    2
    12     6    23    1
    13    23    24   ar
    14    24    25   ar
    15    25    31    1
    16    31    32    1
    17    31    33    1
    18    25    26   ar
    19    26    27    1
    20    26    28   ar
    21    28    34    1
    22    34    35    1
    23    34    36    1
    24    28    29   ar
    25     5     7    1
    26     7     8    2
    27    11    12   ar
    28    12    13   ar
    29    13    20    1
    30    20    21    1
    31    20    22    1
    32    13    14   ar
    33    14    15    1
    34    14     9   ar
    35     7     2    1
    36    29    23   ar
    37    27    30    1
    38    15    16    1
@<TRIPOS>MOLECULE
*****
 36 38 0 0 0
SMALL
GASTEIGER

@<TRIPOS>ATOM
      1 C          59.3818   93.0355    2.4084 C.2     1  UNL1       -0.0011
      2 C          59.6782   92.1511    3.5831 C.2     1  UNL1        0.0167
      3 C          61.0342   91.6631    3.9994 C.3     1  UNL1        0.0344
      4 C          60.8648   90.8099    5.2214 C.3     1  UNL1        0.0344
      5 C          59.4041   90.7706    5.5605 C.2     1  UNL1        0.0167
      6 C          58.7854   90.0321    6.7101 C.2     1  UNL1       -0.0011
      7 C          58.6708   91.5995    4.5479 C.2     1  UNL1        0.1877
      8 O          57.1900   91.8354    4.5074 O.2     1  UNL1       -0.2872
      9 C          62.7940   94.6957    1.2462 C.ar    1  UNL1        0.0109
     10 C          61.6772   94.2195    2.1271 C.ar    1  UNL1       -0.0013
     11 C          60.4985   93.5117    1.5274 C.ar    1  UNL1       -0.0006
     12 C          60.4366   93.2800    0.0467 C.ar    1  UNL1       -0.0013
     13 C          61.5534   93.7562   -0.8342 C.ar    1  UNL1        0.0109
     14 C          62.7321   94.4640   -0.2345 C.ar    1  UNL1        0.1256
     15 O          63.8488   94.9402   -1.1155 O.3     1  UNL1       -0.5061
     16 H          63.8102   94.7955   -2.0404 H       1  UNL1        0.2922
     17 C          63.8692   96.8543    2.2127 C.3     1  UNL1        0.0048
     18 C          63.9726   95.4035    1.8460 C.3     1  UNL1        0.0253
     19 C          65.2547   94.6606    2.0790 C.3     1  UNL1        0.0048
     20 C          61.4915   93.5245   -2.3150 C.3     1  UNL1        0.0253
     21 C          62.7308   93.1368   -3.0659 C.3     1  UNL1        0.0048
     22 C          60.1904   93.6807   -3.0448 C.3     1  UNL1        0.0048
     23 C          59.6504   89.2403    7.6454 C.ar    1  UNL1       -0.0006
     24 C          60.0197   89.8050    8.9850 C.ar    1  UNL1       -0.0013
     25 C          60.8847   89.0131    9.9202 C.ar    1  UNL1        0.0109
     26 C          61.3804   87.6564    9.5158 C.ar    1  UNL1        0.1256
     27 O          62.2455   86.8645   10.4510 O.3     1  UNL1       -0.5061
     28 C          61.0112   87.0916    8.1762 C.ar    1  UNL1        0.0109
     29 C          60.1461   87.8836    7.2409 C.ar    1  UNL1       -0.0013
     30 H          62.4762   87.2172   11.2878 H       1  UNL1        0.2922
     31 C          61.2540   89.5779   11.2598 C.3     1  UNL1        0.0253
     32 C          62.6612   90.0256   11.5230 C.3     1  UNL1        0.0048
     33 C          60.2160   89.6950   12.3364 C.3     1  UNL1        0.0048
     34 C          61.5069   85.7349    7.7717 C.3     1  UNL1        0.0253
     35 C          62.8511   85.2582    8.2364 C.3     1  UNL1        0.0048
     36 C          60.6585   84.8548    6.9025 C.3     1  UNL1        0.0048
@<TRIPOS>BOND
     1    17    18    1
     2    18    19    1
     3    18     9    1
     4     9    10   ar
     5    10    11   ar
     6    11     1    1
     7     1     2    2
     8     2     3    1
     9     3     4    1
    10     4     5    1
    11     5     6    2
    12     6    23    1
    13    23    24   ar
    14    24    25   ar
    15    25    31    1
    16    31    32    1
    17    31    33    1
    18    25    26   ar
    19    26    27    1
    20    26    28   ar
    21    28    34    1
    22    34    35    1
    23    34    36    1
    24    28    29   ar
    25     5     7    1
    26     7     8    2
    27    11    12   ar
    28    12    13   ar
    29    13    20    1
    30    20    21    1
    31    20    22    1
    32    13    14   ar
    33    14    15    1
    34    14     9   ar
    35     7     2    1
    36    29    23   ar
    37    27    30    1
    38    15    16    1
@<TRIPOS>MOLECULE
*****
 36 38 0 0 0
SMALL
GASTEIGER

@<TRIPOS>ATOM
      1 C          58.7920   90.0666    6.6953 C.2     1  UNL1       -0.0011
      2 C          59.4210   90.7949    5.5447 C.2     1  UNL1        0.0167
      3 C          60.8853   90.8364    5.2219 C.3     1  UNL1        0.0344
      4 C          61.0653   91.6767    3.9925 C.3     1  UNL1        0.0344
      5 C          59.7123   92.1545    3.5554 C.2     1  UNL1        0.0167
      6 C          59.4258   93.0246    2.3676 C.2     1  UNL1       -0.0011
      7 C          58.6961   91.6095    4.5147 C.2     1  UNL1        0.1877
      8 O          57.2149   91.8389    4.4545 O.2     1  UNL1       -0.2872
      9 C          60.8612   89.0935    9.9391 C.ar    1  UNL1        0.0109
     10 C          60.0039   89.8713    8.9852 C.ar    1  UNL1       -0.0013
     11 C          59.6494   89.2886    7.6492 C.ar    1  UNL1       -0.0006
     12 C          60.1521   87.9281    7.2672 C.ar    1  UNL1       -0.0013
     13 C          61.0094   87.1502    8.2211 C.ar    1  UNL1        0.0109
     14 C          61.3639   87.7329    9.5570 C.ar    1  UNL1        0.1256
     15 O          62.2213   86.9549   10.5109 O.3     1  UNL1       -0.5061
     16 H          62.5353   86.1050   10.2722 H       1  UNL1        0.2922
     17 C          62.6081   90.1715   11.5316 C.3     1  UNL1        0.0048
     18 C          61.2157   89.6762   11.2750 C.3     1  UNL1        0.0253
     19 C          60.1778   89.7635   12.3544 C.3     1  UNL1        0.0048
     20 C          61.5122   85.7895    7.8390 C.3     1  UNL1        0.0253
     21 C          62.8594   85.3282    8.3103 C.3     1  UNL1        0.0048
     22 C          60.6678   84.8903    6.9856 C.3     1  UNL1        0.0048
     23 C          60.5508   93.4955    1.4942 C.ar    1  UNL1       -0.0006
     24 C          61.7239   94.2068    2.1006 C.ar    1  UNL1       -0.0013
     25 C          62.8487   94.6777    1.2271 C.ar    1  UNL1        0.0109
     26 C          62.8005   94.4373   -0.2526 C.ar    1  UNL1        0.1256
     27 O          63.9255   94.9082   -1.1261 O.3     1  UNL1       -0.5061
     28 C          61.6274   93.7259   -0.8591 C.ar    1  UNL1        0.0109
     29 C          60.5025   93.2550    0.0144 C.ar    1  UNL1       -0.0013
     30 H          64.6583   95.3526   -0.7473 H       1  UNL1        0.2922
     31 C          64.0219   95.3891    1.8335 C.3     1  UNL1        0.0253
     32 C          65.2855   94.6362    2.1274 C.3     1  UNL1        0.0048
     33 C          63.9314   96.8534    2.1460 C.3     1  UNL1        0.0048
     34 C          61.5792   93.4855   -2.3389 C.3     1  UNL1        0.0253
     35 C          60.3098   93.7348   -3.0983 C.3     1  UNL1        0.0048
     36 C          62.8002   92.9957   -3.0593 C.3     1  UNL1        0.0048
@<TRIPOS>BOND
     1    17    18    1
     2    18    19    1
     3    18     9    1
     4     9    10   ar
     5    10    11   ar
     6    11     1    1
     7     1     2    2
     8     2     3    1
     9     3     4    1
    10     4     5    1
    11     5     6    2
    12     6    23    1
    13    23    24   ar
    14    24    25   ar
    15    25    31    1
    16    31    32    1
    17    31    33    1
    18    25    26   ar
    19    26    27    1
    20    26    28   ar
    21    28    34    1
    22    34    35    1
    23    34    36    1
    24    28    29   ar
    25     5     7    1
    26     7     8    2
    27    11    12   ar
    28    12    13   ar
    29    13    20    1
    30    20    21    1
    31    20    22    1
    32    13    14   ar
    33    14    15    1
    34    14     9   ar
    35     7     2    1
    36    29    23   ar
    37    27    30    1
    38    15    16    1
@<TRIPOS>MOLECULE
*****
 36 38 0 0 0
SMALL
GASTEIGER

@<TRIPOS>ATOM
      1 C          59.4649   93.0340    2.3796 C.2     1  UNL1       -0.0011
      2 C          59.7431   92.1506    3.5595 C.2     1  UNL1        0.0167
      3 C          61.0927   91.6653    3.9988 C.3     1  UNL1        0.0344
      4 C          60.9042   90.8121    5.2181 C.3     1  UNL1        0.0344
      5 C          59.4381   90.7701    5.5323 C.2     1  UNL1        0.0167
      6 C          58.8014   90.0307    6.6716 C.2     1  UNL1       -0.0011
      7 C          58.7205   91.5973    4.5073 C.2     1  UNL1        0.1877
      8 O          57.2402   91.8304    4.4416 O.2     1  UNL1       -0.2872
      9 C          62.8967   94.6936    1.2759 C.ar    1  UNL1        0.0109
     10 C          61.7661   94.2155    2.1379 C.ar    1  UNL1       -0.0013
     11 C          60.5955   93.5121    1.5175 C.ar    1  UNL1       -0.0006
     12 C          60.5555   93.2868    0.0351 C.ar    1  UNL1       -0.0013
     13 C          61.6861   93.7649   -0.8269 C.ar    1  UNL1        0.0109
     14 C          62.8567   94.4683   -0.2065 C.ar    1  UNL1        0.1256
     15 O          63.9874   94.9464   -1.0686 O.3     1  UNL1       -0.5061
     16 H          63.9624   94.8056   -1.9946 H       1  UNL1        0.2922
     17 C          63.9717   96.8545    2.2376 C.3     1  UNL1        0.0048
     18 C          64.0673   95.3970    1.8963 C.3     1  UNL1        0.0253
     19 C          65.3336   94.6429    2.1754 C.3     1  UNL1        0.0048
     20 C          61.6462   93.5396   -2.3094 C.3     1  UNL1        0.0253
     21 C          60.4256   93.9212   -3.0934 C.3     1  UNL1        0.0048
     22 C          62.8267   92.9326   -3.0078 C.3     1  UNL1        0.0048
     23 C          59.6520   89.2407    7.6216 C.ar    1  UNL1       -0.0006
     24 C          60.1703   87.8917    7.2201 C.ar    1  UNL1       -0.0013
     25 C          61.0208   87.1018    8.1702 C.ar    1  UNL1        0.0109
     26 C          61.3530   87.6610    9.5217 C.ar    1  UNL1        0.1256
     27 O          62.2036   86.8711   10.4719 O.3     1  UNL1       -0.5061
     28 C          60.8348   89.0101    9.9234 C.ar    1  UNL1        0.0109
     29 C          59.9842   89.8000    8.9732 C.ar    1  UNL1       -0.0013
     30 H          62.5274   86.0283   10.2211 H       1  UNL1        0.2922
     31 C          61.5391   85.7527    7.7686 C.3     1  UNL1        0.0253
     32 C          60.7080   84.8591    6.8965 C.3     1  UNL1        0.0048
     33 C          62.8885   85.2972    8.2392 C.3     1  UNL1        0.0048
     34 C          61.1670   89.5693   11.2750 C.3     1  UNL1        0.0253
     35 C          60.0946   89.7040   12.3152 C.3     1  UNL1        0.0048
     36 C          62.5715   89.9940   11.5864 C.3     1  UNL1        0.0048
@<TRIPOS>BOND
     1    17    18    1
     2    18    19    1
     3    18     9    1
     4     9    10   ar
     5    10    11   ar
     6    11     1    1
     7     1     2    2
     8     2     3    1
     9     3     4    1
    10     4     5    1
    11     5     6    2
    12     6    23    1
    13    23    24   ar
    14    24    25   ar
    15    25    31    1
    16    31    32    1
    17    31    33    1
    18    25    26   ar
    19    26    27    1
    20    26    28   ar
    21    28    34    1
    22    34    35    1
    23    34    36    1
    24    28    29   ar
    25     5     7    1
    26     7     8    2
    27    11    12   ar
    28    12    13   ar
    29    13    20    1
    30    20    21    1
    31    20    22    1
    32    13    14   ar
    33    14    15    1
    34    14     9   ar
    35     7     2    1
    36    29    23   ar
    37    27    30    1
    38    15    16    1
@<TRIPOS>MOLECULE
*****
 36 38 0 0 0
SMALL
GASTEIGER

@<TRIPOS>ATOM
      1 C          58.7929   90.0593    6.6867 C.2     1  UNL1       -0.0011
      2 C          59.4218   90.7909    5.5381 C.2     1  UNL1        0.0167
      3 C          60.8866   90.8382    5.2188 C.3     1  UNL1        0.0344
      4 C          61.0664   91.6802    3.9905 C.3     1  UNL1        0.0344
      5 C          59.7127   92.1532    3.5505 C.2     1  UNL1        0.0167
      6 C          59.4257   93.0231    2.3627 C.2     1  UNL1       -0.0011
      7 C          58.6962   91.6035    4.5070 C.2     1  UNL1        0.1877
      8 O          57.2144   91.8273    4.4435 O.2     1  UNL1       -0.2872
      9 C          61.0082   87.1452    8.2199 C.ar    1  UNL1        0.0109
     10 C          60.1502   87.9206    7.2646 C.ar    1  UNL1       -0.0013
     11 C          59.6509   89.2838    7.6420 C.ar    1  UNL1       -0.0006
     12 C          60.0096   89.8716    8.9746 C.ar    1  UNL1       -0.0013
     13 C          60.8676   89.0962    9.9298 C.ar    1  UNL1        0.0109
     14 C          61.3669   87.7330    9.5525 C.ar    1  UNL1        0.1256
     15 O          62.2249   86.9575   10.5078 O.3     1  UNL1       -0.5061
     16 H          62.4490   87.3247   11.3402 H       1  UNL1        0.2922
     17 C          62.8471   85.3130    8.3278 C.3     1  UNL1        0.0048
     18 C          61.5075   85.7820    7.8425 C.3     1  UNL1        0.0253
     19 C          60.6672   84.8878    6.9799 C.3     1  UNL1        0.0048
     20 C          61.2263   89.6839   11.2625 C.3     1  UNL1        0.0253
     21 C          62.6121   90.2048   11.5039 C.3     1  UNL1        0.0048
     22 C          60.1993   89.7508   12.3536 C.3     1  UNL1        0.0048
     23 C          60.5509   93.4990    1.4924 C.ar    1  UNL1       -0.0006
     24 C          61.7201   94.2136    2.1021 C.ar    1  UNL1       -0.0013
     25 C          62.8453   94.6895    1.2318 C.ar    1  UNL1        0.0109
     26 C          62.8012   94.4507   -0.2484 C.ar    1  UNL1        0.1256
     27 O          63.9264   94.9266   -1.1188 O.3     1  UNL1       -0.5061
     28 C          61.6319   93.7360   -0.8583 C.ar    1  UNL1        0.0109
     29 C          60.5067   93.2601    0.0122 C.ar    1  UNL1       -0.0013
     30 H          64.6568   95.3730   -0.7379 H       1  UNL1        0.2922
     31 C          64.0146   95.4042    1.8416 C.3     1  UNL1        0.0253
     32 C          63.9012   96.8557    2.2028 C.3     1  UNL1        0.0048
     33 C          65.2973   94.6675    2.0902 C.3     1  UNL1        0.0048
     34 C          61.5877   93.4971   -2.3385 C.3     1  UNL1        0.0253
     35 C          60.3210   93.7490   -3.1014 C.3     1  UNL1        0.0048
     36 C          62.8102   93.0063   -3.0557 C.3     1  UNL1        0.0048
@<TRIPOS>BOND
     1    17    18    1
     2    18    19    1
     3    18     9    1
     4     9    10   ar
     5    10    11   ar
     6    11     1    1
     7     1     2    2
     8     2     3    1
     9     3     4    1
    10     4     5    1
    11     5     6    2
    12     6    23    1
    13    23    24   ar
    14    24    25   ar
    15    25    31    1
    16    31    32    1
    17    31    33    1
    18    25    26   ar
    19    26    27    1
    20    26    28   ar
    21    28    34    1
    22    34    35    1
    23    34    36    1
    24    28    29   ar
    25     5     7    1
    26     7     8    2
    27    11    12   ar
    28    12    13   ar
    29    13    20    1
    30    20    21    1
    31    20    22    1
    32    13    14   ar
    33    14    15    1
    34    14     9   ar
    35     7     2    1
    36    29    23   ar
    37    27    30    1
    38    15    16    1
@<TRIPOS>MOLECULE
*****
 36 38 0 0 0
SMALL
GASTEIGER

@<TRIPOS>ATOM
      1 C          59.4763   93.0482    2.3696 C.2     1  UNL1       -0.0011
      2 C          59.7497   92.1627    3.5491 C.2     1  UNL1        0.0167
      3 C          61.0971   91.6731    3.9905 C.3     1  UNL1        0.0344
      4 C          60.9039   90.8191    5.2084 C.3     1  UNL1        0.0344
      5 C          59.4370   90.7809    5.5198 C.2     1  UNL1        0.0167
      6 C          58.7960   90.0420    6.6570 C.2     1  UNL1       -0.0011
      7 C          58.7238   91.6112    4.4942 C.2     1  UNL1        0.1877
      8 O          57.2442   91.8485    4.4259 O.2     1  UNL1       -0.2872
      9 C          61.7085   93.7710   -0.8311 C.ar    1  UNL1        0.0109
     10 C          60.5749   93.2951    0.0282 C.ar    1  UNL1       -0.0013
     11 C          60.6100   93.5240    1.5103 C.ar    1  UNL1       -0.0006
     12 C          61.7785   94.2287    2.1329 C.ar    1  UNL1       -0.0013
     13 C          62.9121   94.7046    1.2735 C.ar    1  UNL1        0.0109
     14 C          62.8771   94.4757   -0.2085 C.ar    1  UNL1        0.1256
     15 O          64.0108   94.9515   -1.0679 O.3     1  UNL1       -0.5061
     16 H          64.7408   95.3917   -0.6789 H       1  UNL1        0.2922
     17 C          62.8362   92.8877   -2.9986 C.3     1  UNL1        0.0048
     18 C          61.6735   93.5421   -2.3131 C.3     1  UNL1        0.0253
     19 C          60.4758   93.9675   -3.1097 C.3     1  UNL1        0.0048
     20 C          64.0808   95.4093    1.8962 C.3     1  UNL1        0.0253
     21 C          63.9653   96.8533    2.2855 C.3     1  UNL1        0.0048
     22 C          65.3649   94.6700    2.1295 C.3     1  UNL1        0.0048
     23 C          59.6425   89.2486    7.6078 C.ar    1  UNL1       -0.0006
     24 C          59.9821   89.8095    8.9568 C.ar    1  UNL1       -0.0013
     25 C          60.8286   89.0160    9.9075 C.ar    1  UNL1        0.0109
     26 C          61.3355   87.6617    9.5092 C.ar    1  UNL1        0.1256
     27 O          62.1820   86.8682   10.4599 O.3     1  UNL1       -0.5061
     28 C          60.9959   87.1007    8.1601 C.ar    1  UNL1        0.0109
     29 C          60.1494   87.8942    7.2094 C.ar    1  UNL1       -0.0013
     30 H          62.3941   87.2185   11.3027 H       1  UNL1        0.2922
     31 C          61.1682   89.5770   11.2566 C.3     1  UNL1        0.0253
     32 C          60.1017   89.7128   12.3025 C.3     1  UNL1        0.0048
     33 C          62.5744   90.0021   11.5597 C.3     1  UNL1        0.0048
     34 C          61.5027   85.7463    7.7617 C.3     1  UNL1        0.0253
     35 C          60.6476   84.8418    6.9247 C.3     1  UNL1        0.0048
     36 C          62.8648   85.2964    8.2004 C.3     1  UNL1        0.0048
@<TRIPOS>BOND
     1    17    18    1
     2    18    19    1
     3    18     9    1
     4     9    10   ar
     5    10    11   ar
     6    11     1    1
     7     1     2    2
     8     2     3    1
     9     3     4    1
    10     4     5    1
    11     5     6    2
    12     6    23    1
    13    23    24   ar
    14    24    25   ar
    15    25    31    1
    16    31    32    1
    17    31    33    1
    18    25    26   ar
    19    26    27    1
    20    26    28   ar
    21    28    34    1
    22    34    35    1
    23    34    36    1
    24    28    29   ar
    25     5     7    1
    26     7     8    2
    27    11    12   ar
    28    12    13   ar
    29    13    20    1
    30    20    21    1
    31    20    22    1
    32    13    14   ar
    33    14    15    1
    34    14     9   ar
    35     7     2    1
    36    29    23   ar
    37    27    30    1
    38    15    16    1
@<TRIPOS>MOLECULE
*****
 36 38 0 0 0
SMALL
GASTEIGER

@<TRIPOS>ATOM
      1 C          58.7671   90.0743    6.6805 C.2     1  UNL1       -0.0011
      2 C          59.4005   90.8025    5.5323 C.2     1  UNL1        0.0167
      3 C          60.8633   90.8237    5.2008 C.3     1  UNL1        0.0344
      4 C          61.0492   91.6718    3.9776 C.3     1  UNL1        0.0344
      5 C          59.7013   92.1748    3.5531 C.2     1  UNL1        0.0167
      6 C          59.4215   93.0596    2.3746 C.2     1  UNL1       -0.0011
      7 C          58.6824   91.6375    4.5139 C.2     1  UNL1        0.1877
      8 O          57.2048   91.8909    4.4650 O.2     1  UNL1       -0.2872
      9 C          60.9710   87.1218    8.1556 C.ar    1  UNL1        0.0109
     10 C          60.1205   87.9216    7.2139 C.ar    1  UNL1       -0.0013
     11 C          59.6177   89.2745    7.6223 C.ar    1  UNL1       -0.0006
     12 C          59.9656   89.8277    8.9724 C.ar    1  UNL1       -0.0013
     13 C          60.8162   89.0279    9.9141 C.ar    1  UNL1        0.0109
     14 C          61.3189   87.6750    9.5057 C.ar    1  UNL1        0.1256
     15 O          62.1696   86.8752   10.4475 O.3     1  UNL1       -0.5061
     16 H          62.3869   87.2208   11.2909 H       1  UNL1        0.2922
     17 C          62.8324   85.3095    8.1865 C.3     1  UNL1        0.0048
     18 C          61.4738   85.7689    7.7471 C.3     1  UNL1        0.0253
     19 C          60.6179   84.8753    6.8993 C.3     1  UNL1        0.0048
     20 C          61.1641   89.5811   11.2644 C.3     1  UNL1        0.0253
     21 C          60.0974   89.7419   12.3066 C.3     1  UNL1        0.0048
     22 C          62.5788   89.9735   11.5723 C.3     1  UNL1        0.0048
     23 C          60.5485   93.5203    1.4984 C.ar    1  UNL1       -0.0006
     24 C          60.4995   93.2708    0.0202 C.ar    1  UNL1       -0.0013
     25 C          61.6265   93.7315   -0.8559 C.ar    1  UNL1        0.0109
     26 C          62.8024   94.4417   -0.2538 C.ar    1  UNL1        0.1256
     27 O          63.9295   94.9025   -1.1300 O.3     1  UNL1       -0.5061
     28 C          62.8515   94.6913    1.2245 C.ar    1  UNL1        0.0109
     29 C          61.7244   94.2305    2.1006 C.ar    1  UNL1       -0.0013
     30 H          63.8989   94.7466   -2.0534 H       1  UNL1        0.2922
     31 C          61.5775   93.4820   -2.3342 C.3     1  UNL1        0.0253
     32 C          60.3700   93.8914   -3.1243 C.3     1  UNL1        0.0048
     33 C          62.7360   92.8230   -3.0224 C.3     1  UNL1        0.0048
     34 C          64.0275   95.4015    1.8266 C.3     1  UNL1        0.0253
     35 C          65.3069   94.6582    2.0731 C.3     1  UNL1        0.0048
     36 C          63.9241   96.8550    2.1824 C.3     1  UNL1        0.0048
@<TRIPOS>BOND
     1    17    18    1
     2    18    19    1
     3    18     9    1
     4     9    10   ar
     5    10    11   ar
     6    11     1    1
     7     1     2    2
     8     2     3    1
     9     3     4    1
    10     4     5    1
    11     5     6    2
    12     6    23    1
    13    23    24   ar
    14    24    25   ar
    15    25    31    1
    16    31    32    1
    17    31    33    1
    18    25    26   ar
    19    26    27    1
    20    26    28   ar
    21    28    34    1
    22    34    35    1
    23    34    36    1
    24    28    29   ar
    25     5     7    1
    26     7     8    2
    27    11    12   ar
    28    12    13   ar
    29    13    20    1
    30    20    21    1
    31    20    22    1
    32    13    14   ar
    33    14    15    1
    34    14     9   ar
    35     7     2    1
    36    29    23   ar
    37    27    30    1
    38    15    16    1
@<TRIPOS>MOLECULE
*****
 36 38 0 0 0
SMALL
GASTEIGER

@<TRIPOS>ATOM
      1 C          58.7964   90.0505    6.6743 C.2     1  UNL1       -0.0011
      2 C          59.4185   90.7851    5.5238 C.2     1  UNL1        0.0167
      3 C          60.8830   90.8463    5.2052 C.3     1  UNL1        0.0344
      4 C          61.0550   91.6864    3.9745 C.3     1  UNL1        0.0344
      5 C          59.6967   92.1444    3.5325 C.2     1  UNL1        0.0167
      6 C          59.4016   93.0078    2.3420 C.2     1  UNL1       -0.0011
      7 C          58.6854   91.5873    4.4900 C.2     1  UNL1        0.1877
      8 O          57.2014   91.7959    4.4251 O.2     1  UNL1       -0.2872
      9 C          60.8926   89.1250    9.9146 C.ar    1  UNL1        0.0109
     10 C          60.0274   89.8888    8.9566 C.ar    1  UNL1       -0.0013
     11 C          59.6617   89.2866    7.6323 C.ar    1  UNL1       -0.0006
     12 C          60.1614   87.9205    7.2661 C.ar    1  UNL1       -0.0013
     13 C          61.0266   87.1567    8.2241 C.ar    1  UNL1        0.0109
     14 C          61.3922   87.7589    9.5484 C.ar    1  UNL1        0.1256
     15 O          62.2575   86.9950   10.5064 O.3     1  UNL1       -0.5061
     16 H          62.5696   86.1417   10.2776 H       1  UNL1        0.2922
     17 C          62.6171   90.3299   11.4391 C.3     1  UNL1        0.0048
     18 C          61.2582   89.7273   11.2388 C.3     1  UNL1        0.0253
     19 C          60.2650   89.7268   12.3628 C.3     1  UNL1        0.0048
     20 C          61.5263   85.7905    7.8579 C.3     1  UNL1        0.0253
     21 C          60.6977   84.8989    6.9813 C.3     1  UNL1        0.0048
     22 C          62.8545   85.3160    8.3684 C.3     1  UNL1        0.0048
     23 C          60.5224   93.4925    1.4708 C.ar    1  UNL1       -0.0006
     24 C          60.4703   93.2701   -0.0116 C.ar    1  UNL1       -0.0013
     25 C          61.5911   93.7548   -0.8826 C.ar    1  UNL1        0.0109
     26 C          62.7641   94.4620   -0.2712 C.ar    1  UNL1        0.1256
     27 O          63.8850   94.9468   -1.1423 O.3     1  UNL1       -0.5061
     28 C          62.8164   94.6845    1.2112 C.ar    1  UNL1        0.0109
     29 C          61.6954   94.1997    2.0823 C.ar    1  UNL1       -0.0013
     30 H          63.8525   94.8078   -2.0684 H       1  UNL1        0.2922
     31 C          61.5389   93.5324   -2.3651 C.3     1  UNL1        0.0253
     32 C          60.2662   93.7861   -3.1173 C.3     1  UNL1        0.0048
     33 C          62.7595   93.0562   -3.0955 C.3     1  UNL1        0.0048
     34 C          63.9894   95.3917    1.8227 C.3     1  UNL1        0.0253
     35 C          65.2519   94.6361    2.1145 C.3     1  UNL1        0.0048
     36 C          63.8999   96.8544    2.1425 C.3     1  UNL1        0.0048
@<TRIPOS>BOND
     1    17    18    1
     2    18    19    1
     3    18     9    1
     4     9    10   ar
     5    10    11   ar
     6    11     1    1
     7     1     2    2
     8     2     3    1
     9     3     4    1
    10     4     5    1
    11     5     6    2
    12     6    23    1
    13    23    24   ar
    14    24    25   ar
    15    25    31    1
    16    31    32    1
    17    31    33    1
    18    25    26   ar
    19    26    27    1
    20    26    28   ar
    21    28    34    1
    22    34    35    1
    23    34    36    1
    24    28    29   ar
    25     5     7    1
    26     7     8    2
    27    11    12   ar
    28    12    13   ar
    29    13    20    1
    30    20    21    1
    31    20    22    1
    32    13    14   ar
    33    14    15    1
    34    14     9   ar
    35     7     2    1
    36    29    23   ar
    37    27    30    1
    38    15    16    1
@<TRIPOS>MOLECULE
*****
 36 38 0 0 0
SMALL
GASTEIGER

@<TRIPOS>ATOM
      1 C          62.5776   85.0238   15.2636 C.2     1  UNL1       -0.0011
      2 C          63.2426   86.3275   14.9349 C.2     1  UNL1        0.0167
      3 C          63.9194   86.6705   13.6410 C.3     1  UNL1        0.0344
      4 C          64.4427   88.0721   13.7488 C.3     1  UNL1        0.0344
      5 C          64.0893   88.5954   15.1094 C.2     1  UNL1        0.0167
      6 C          64.4197   89.9578   15.6432 C.2     1  UNL1       -0.0011
      7 C          63.3476   87.5172   15.8424 C.2     1  UNL1        0.1877
      8 O          62.8061   87.6121   17.2380 O.2     1  UNL1       -0.2872
      9 C          61.9084   81.4911   13.5837 C.ar    1  UNL1        0.0109
     10 C          61.9349   82.5962   14.5976 C.ar    1  UNL1       -0.0013
     11 C          62.5511   83.9188   14.2496 C.ar    1  UNL1       -0.0006
     12 C          63.1408   84.1363   12.8877 C.ar    1  UNL1       -0.0013
     13 C          63.1143   83.0312   11.8738 C.ar    1  UNL1        0.0109
     14 C          62.4981   81.7086   12.2217 C.ar    1  UNL1        0.1256
     15 O          62.4716   80.6036   11.2077 O.3     1  UNL1       -0.5061
     16 H          62.8400   80.7394   10.3570 H       1  UNL1        0.2922
     17 C          59.8258   80.0810   14.2351 C.3     1  UNL1        0.0048
     18 C          61.2922   80.1686   13.9317 C.3     1  UNL1        0.0253
     19 C          62.1423   78.9336   13.9762 C.3     1  UNL1        0.0048
     20 C          63.7040   83.2487   10.5117 C.3     1  UNL1        0.0253
     21 C          63.2544   84.4107    9.6766 C.3     1  UNL1        0.0048
     22 C          64.7434   82.3041    9.9850 C.3     1  UNL1        0.0048
     23 C          65.1710   90.9358   14.7894 C.ar    1  UNL1       -0.0006
     24 C          66.4552   91.5320   15.2846 C.ar    1  UNL1       -0.0013
     25 C          67.2064   92.5100   14.4308 C.ar    1  UNL1        0.0109
     26 C          66.6734   92.8920   13.0818 C.ar    1  UNL1        0.1256
     27 O          67.4246   93.8701   12.2279 O.3     1  UNL1       -0.5061
     28 C          65.3891   92.2959   12.5865 C.ar    1  UNL1        0.0109
     29 C          64.6379   91.3178   13.4404 C.ar    1  UNL1       -0.0013
     30 H          68.2269   94.2425   12.5372 H       1  UNL1        0.2922
     31 C          68.4907   93.1061   14.9260 C.3     1  UNL1        0.0253
     32 C          69.8032   92.5899   14.4153 C.3     1  UNL1        0.0048
     33 C          68.4625   94.2185   15.9319 C.3     1  UNL1        0.0048
     34 C          64.8560   92.6778   11.2374 C.3     1  UNL1        0.0253
     35 C          63.8421   91.8063   10.5574 C.3     1  UNL1        0.0048
     36 C          65.3368   93.9313   10.5684 C.3     1  UNL1        0.0048
@<TRIPOS>BOND
     1    17    18    1
     2    18    19    1
     3    18     9    1
     4     9    10   ar
     5    10    11   ar
     6    11     1    1
     7     1     2    2
     8     2     3    1
     9     3     4    1
    10     4     5    1
    11     5     6    2
    12     6    23    1
    13    23    24   ar
    14    24    25   ar
    15    25    31    1
    16    31    32    1
    17    31    33    1
    18    25    26   ar
    19    26    27    1
    20    26    28   ar
    21    28    34    1
    22    34    35    1
    23    34    36    1
    24    28    29   ar
    25     5     7    1
    26     7     8    2
    27    11    12   ar
    28    12    13   ar
    29    13    20    1
    30    20    21    1
    31    20    22    1
    32    13    14   ar
    33    14    15    1
    34    14     9   ar
    35     7     2    1
    36    29    23   ar
    37    27    30    1
    38    15    16    1
