@<TRIPOS>MOLECULE
*****
 26 28 0 0 0
SMALL
GASTEIGER

@<TRIPOS>ATOM
      1 C          63.0800   86.9462   12.8872 C.ar    1  UNL1        0.0505
      2 C          62.7365   87.8922   11.7749 C.ar    1  UNL1        0.0148
      3 C          63.2143   89.3132   11.8244 C.ar    1  UNL1        0.0058
      4 C          64.0356   89.7882   12.9862 C.ar    1  UNL1        0.0538
      5 C          64.3791   88.8422   14.0985 C.ar    1  UNL1        0.0058
      6 C          63.9013   87.4213   14.0489 C.ar    1  UNL1        0.0148
      7 C          63.5005   84.4154   13.2973 C.2     1  UNL1        0.2492
      8 O          64.8766   84.7266   13.8067 O.2     1  UNL1       -0.2698
      9 N          62.6022   85.5252   12.8376 N.am    1  UNL1       -0.2804
     10 H          61.6990   85.3209   12.5033 H       1  UNL1        0.1552
     11 C          64.2448   82.6625   10.9793 C.3     1  UNL1        0.0312
     12 C          63.3948   82.1180   12.0888 C.ar    1  UNL1       -0.0175
     13 C          62.9170   80.6970   12.0392 C.ar    1  UNL1       -0.0041
     14 C          62.0670   80.1524   13.1488 C.ar    1  UNL1       -0.0003
     15 C          61.6948   81.0288   14.3078 C.ar    1  UNL1        0.0001
     16 C          62.1727   82.4498   14.3573 C.ar    1  UNL1        0.0042
     17 C          63.0226   82.9944   13.2478 C.ar    1  UNL1        0.0497
     18 C          64.5134   91.2092   13.0357 C.2     1  UNL1        0.2509
     19 O          64.3867   91.9993   14.3045 O.2     1  UNL1       -0.2698
     20 N          65.1179   91.8402   11.8165 N.am    1  UNL1       -0.2606
     21 H          65.2011   91.3216   10.9838 H       1  UNL1        0.1571
     22 C          65.5957   93.2611   11.8660 C.ar    1  UNL1        0.1658
     23 N          66.0709   93.9894   13.0882 N.ar    1  UNL1       -0.2224
     24 C          66.4511   95.3817   12.6796 C.ar    1  UNL1        0.1079
     25 C          66.2110   95.5139   11.2048 C.ar    1  UNL1        0.0588
     26 S          65.6823   94.2033   10.7020 S.2     1  UNL1       -0.0508
@<TRIPOS>BOND
     1    11    12    1
     2    12    13   ar
     3    13    14   ar
     4    14    15   ar
     5    15    16   ar
     6    16    17   ar
     7    17     7    1
     8     7     8    2
     9     7     9   am
    10     9     1    1
    11     1     2   ar
    12     2     3   ar
    13     3     4   ar
    14     4    18    1
    15    18    19    2
    16    18    20   am
    17    20    22    1
    18    22    23   ar
    19    23    24   ar
    20    24    25   ar
    21    25    26   ar
    22     4     5   ar
    23     5     6   ar
    24    17    12   ar
    25     6     1   ar
    26    26    22   ar
    27     9    10    1
    28    20    21    1
@<TRIPOS>MOLECULE
*****
 26 28 0 0 0
SMALL
GASTEIGER

@<TRIPOS>ATOM
      1 C          63.3045   86.1496   13.2460 C.ar    1  UNL1        0.0505
      2 C          64.0462   86.3706   14.5309 C.ar    1  UNL1        0.0148
      3 C          64.5135   87.7473   14.8999 C.ar    1  UNL1        0.0058
      4 C          64.2391   88.9030   13.9840 C.ar    1  UNL1        0.0538
      5 C          63.4974   88.6820   12.6990 C.ar    1  UNL1        0.0058
      6 C          63.0302   87.3053   12.3300 C.ar    1  UNL1        0.0148
      7 C          63.7706   83.6052   13.0024 C.2     1  UNL1        0.2492
      8 O          65.1713   83.8145   13.4967 O.2     1  UNL1       -0.2698
      9 N          62.8373   84.7727   12.8770 N.am    1  UNL1       -0.2804
     10 H          61.9180   84.6354   12.5525 H       1  UNL1        0.1552
     11 C          64.0054   82.6509   10.1679 C.3     1  UNL1        0.0312
     12 C          63.4207   81.7513   11.2161 C.ar    1  UNL1       -0.0175
     13 C          62.9535   80.3745   10.8472 C.ar    1  UNL1       -0.0041
     14 C          62.3688   79.4749   11.8955 C.ar    1  UNL1       -0.0003
     15 C          62.2514   79.9520   13.3127 C.ar    1  UNL1        0.0001
     16 C          62.7187   81.3288   13.6816 C.ar    1  UNL1        0.0042
     17 C          63.3033   82.2284   12.6334 C.ar    1  UNL1        0.0497
     18 C          64.7063   90.2799   14.3530 C.2     1  UNL1        0.2509
     19 O          63.7297   91.2853   14.8869 O.2     1  UNL1       -0.2698
     20 N          66.1503   90.6511   14.1881 N.am    1  UNL1       -0.2606
     21 H          66.7913   89.9911   13.8377 H       1  UNL1        0.1571
     22 C          66.6176   92.0278   14.5570 C.ar    1  UNL1        0.1658
     23 N          66.2217   93.3050   13.8772 N.ar    1  UNL1       -0.2224
     24 C          66.9223   94.4356   14.5706 C.ar    1  UNL1        0.1079
     25 C          67.7511   93.8573   15.6791 C.ar    1  UNL1        0.0588
     26 S          67.5628   92.3692   15.6706 S.2     1  UNL1       -0.0508
@<TRIPOS>BOND
     1    11    12    1
     2    12    13   ar
     3    13    14   ar
     4    14    15   ar
     5    15    16   ar
     6    16    17   ar
     7    17     7    1
     8     7     8    2
     9     7     9   am
    10     9     1    1
    11     1     2   ar
    12     2     3   ar
    13     3     4   ar
    14     4    18    1
    15    18    19    2
    16    18    20   am
    17    20    22    1
    18    22    23   ar
    19    23    24   ar
    20    24    25   ar
    21    25    26   ar
    22     4     5   ar
    23     5     6   ar
    24    17    12   ar
    25     6     1   ar
    26    26    22   ar
    27     9    10    1
    28    20    21    1
@<TRIPOS>MOLECULE
*****
 26 28 0 0 0
SMALL
GASTEIGER

@<TRIPOS>ATOM
      1 C          62.9695   86.8521   12.6711 C.ar    1  UNL1        0.0505
      2 C          63.8003   87.3756   13.8050 C.ar    1  UNL1        0.0148
      3 C          64.2438   88.8085   13.8107 C.ar    1  UNL1        0.0058
      4 C          63.8566   89.7179   12.6825 C.ar    1  UNL1        0.0538
      5 C          63.0258   89.1944   11.5486 C.ar    1  UNL1        0.0058
      6 C          62.5823   87.7615   11.5429 C.ar    1  UNL1        0.0148
      7 C          63.4921   84.3335   13.0371 C.2     1  UNL1        0.2492
      8 O          64.9018   84.6808   13.4142 O.2     1  UNL1       -0.2698
      9 N          62.5260   85.4191   12.6655 N.am    1  UNL1       -0.2804
     10 H          61.6008   85.1912   12.4180 H       1  UNL1        0.1552
     11 C          62.0582   83.1977   15.4148 C.3     1  UNL1        0.0312
     12 C          62.3317   82.3327   14.2203 C.ar    1  UNL1       -0.0175
     13 C          61.8882   80.8998   14.2146 C.ar    1  UNL1       -0.0041
     14 C          62.1617   80.0348   13.0201 C.ar    1  UNL1       -0.0003
     15 C          62.8786   80.6026   11.8312 C.ar    1  UNL1        0.0001
     16 C          63.3221   82.0355   11.8369 C.ar    1  UNL1        0.0042
     17 C          63.0486   82.9006   13.0314 C.ar    1  UNL1        0.0497
     18 C          64.3001   91.1508   12.6881 C.2     1  UNL1        0.2509
     19 O          64.0318   92.0143   13.8849 O.2     1  UNL1       -0.2698
     20 N          65.0119   91.7203   11.4968 N.am    1  UNL1       -0.2606
     21 H          65.1879   91.1536   10.7113 H       1  UNL1        0.1571
     22 C          65.4554   93.1532   11.5024 C.ar    1  UNL1        0.1658
     23 N          65.2008   94.1591   10.4193 N.ar    1  UNL1       -0.2224
     24 C          65.8194   95.4594   10.8395 C.ar    1  UNL1        0.1079
     25 C          66.4564   95.2571   12.1825 C.ar    1  UNL1        0.0588
     26 S          66.2314   93.8317   12.5921 S.2     1  UNL1       -0.0508
@<TRIPOS>BOND
     1    11    12    1
     2    12    13   ar
     3    13    14   ar
     4    14    15   ar
     5    15    16   ar
     6    16    17   ar
     7    17     7    1
     8     7     8    2
     9     7     9   am
    10     9     1    1
    11     1     2   ar
    12     2     3   ar
    13     3     4   ar
    14     4    18    1
    15    18    19    2
    16    18    20   am
    17    20    22    1
    18    22    23   ar
    19    23    24   ar
    20    24    25   ar
    21    25    26   ar
    22     4     5   ar
    23     5     6   ar
    24    17    12   ar
    25     6     1   ar
    26    26    22   ar
    27     9    10    1
    28    20    21    1
@<TRIPOS>MOLECULE
*****
 26 28 0 0 0
SMALL
GASTEIGER

@<TRIPOS>ATOM
      1 C          62.9977   89.9553   11.1494 C.ar    1  UNL1        0.0505
      2 C          63.7445   91.2064   10.7931 C.ar    1  UNL1        0.0148
      3 C          64.6292   91.8668   11.8085 C.ar    1  UNL1        0.0058
      4 C          64.7672   91.2760   13.1803 C.ar    1  UNL1        0.0538
      5 C          64.0204   90.0248   13.5367 C.ar    1  UNL1        0.0058
      6 C          63.1356   89.3645   12.5212 C.ar    1  UNL1        0.0148
      7 C          61.9273   87.8067   10.1555 C.2     1  UNL1        0.2492
      8 O          62.6264   86.9787   11.1927 O.2     1  UNL1       -0.2698
      9 N          62.1129   89.2950   10.1339 N.am    1  UNL1       -0.2804
     10 H          61.6541   89.8384    9.4532 H       1  UNL1        0.1552
     11 C          62.9850   85.5500    8.4856 C.3     1  UNL1        0.0312
     12 C          61.5714   86.0181    8.3051 C.ar    1  UNL1       -0.0175
     13 C          60.6866   85.3578    7.2896 C.ar    1  UNL1       -0.0041
     14 C          59.2730   85.8258    7.1091 C.ar    1  UNL1       -0.0003
     15 C          58.7441   86.9542    7.9440 C.ar    1  UNL1        0.0001
     16 C          59.6289   87.6144    8.9595 C.ar    1  UNL1        0.0042
     17 C          61.0425   87.1464    9.1400 C.ar    1  UNL1        0.0497
     18 C          65.6519   91.9363   14.1958 C.2     1  UNL1        0.2509
     19 O          65.0929   92.3408   15.5277 O.2     1  UNL1       -0.2698
     20 N          67.0957   92.1921   13.8794 N.am    1  UNL1       -0.2606
     21 H          67.4626   91.9267   13.0053 H       1  UNL1        0.1571
     22 C          67.9805   92.8524   14.8949 C.ar    1  UNL1        0.1658
     23 N          68.1723   94.3298   15.0694 N.ar    1  UNL1       -0.2224
     24 C          69.1391   94.5418   16.1965 C.ar    1  UNL1        0.1079
     25 C          69.5449   93.1953   16.7185 C.ar    1  UNL1        0.0588
     26 S          68.8288   92.1513   15.9141 S.2     1  UNL1       -0.0508
@<TRIPOS>BOND
     1    11    12    1
     2    12    13   ar
     3    13    14   ar
     4    14    15   ar
     5    15    16   ar
     6    16    17   ar
     7    17     7    1
     8     7     8    2
     9     7     9   am
    10     9     1    1
    11     1     2   ar
    12     2     3   ar
    13     3     4   ar
    14     4    18    1
    15    18    19    2
    16    18    20   am
    17    20    22    1
    18    22    23   ar
    19    23    24   ar
    20    24    25   ar
    21    25    26   ar
    22     4     5   ar
    23     5     6   ar
    24    17    12   ar
    25     6     1   ar
    26    26    22   ar
    27     9    10    1
    28    20    21    1
@<TRIPOS>MOLECULE
*****
 26 28 0 0 0
SMALL
GASTEIGER

@<TRIPOS>ATOM
      1 C          63.1411   85.7259   13.0172 C.ar    1  UNL1        0.0505
      2 C          62.7796   86.8346   12.0736 C.ar    1  UNL1        0.0148
      3 C          63.1798   88.2459   12.3863 C.ar    1  UNL1        0.0058
      4 C          63.9416   88.5487   13.6424 C.ar    1  UNL1        0.0538
      5 C          64.3031   87.4401   14.5860 C.ar    1  UNL1        0.0058
      6 C          63.9028   86.0287   14.2734 C.ar    1  UNL1        0.0148
      7 C          63.7228   83.3816   12.0602 C.2     1  UNL1        0.2492
      8 O          65.1052   83.8601   11.7285 O.2     1  UNL1       -0.2698
      9 N          62.7407   84.3145   12.7045 N.am    1  UNL1       -0.2804
     10 H          61.8334   84.0005   12.9222 H       1  UNL1        0.1552
     11 C          62.7586   81.5751   14.2527 C.3     1  UNL1        0.0312
     12 C          62.8404   81.0670   12.8438 C.ar    1  UNL1       -0.0175
     13 C          62.4401   79.6556   12.5311 C.ar    1  UNL1       -0.0041
     14 C          62.5219   79.1475   11.1222 C.ar    1  UNL1       -0.0003
     15 C          63.0040   80.0507   10.0259 C.ar    1  UNL1        0.0001
     16 C          63.4042   81.4620   10.3386 C.ar    1  UNL1        0.0042
     17 C          63.3225   81.9702   11.7476 C.ar    1  UNL1        0.0497
     18 C          64.3419   89.9601   13.9551 C.2     1  UNL1        0.2509
     19 O          63.4157   90.8477   14.7323 O.2     1  UNL1       -0.2698
     20 N          65.6686   90.4838   13.4905 N.am    1  UNL1       -0.2606
     21 H          66.2765   89.9012   12.9804 H       1  UNL1        0.1571
     22 C          66.0689   91.8951   13.8031 C.ar    1  UNL1        0.1658
     23 N          65.9318   93.0742   12.8861 N.ar    1  UNL1       -0.2224
     24 C          66.4548   94.2830   13.6039 C.ar    1  UNL1        0.1079
     25 C          66.9152   93.8511   14.9646 C.ar    1  UNL1        0.0588
     26 S          66.6767   92.3753   15.0877 S.2     1  UNL1       -0.0508
@<TRIPOS>BOND
     1    11    12    1
     2    12    13   ar
     3    13    14   ar
     4    14    15   ar
     5    15    16   ar
     6    16    17   ar
     7    17     7    1
     8     7     8    2
     9     7     9   am
    10     9     1    1
    11     1     2   ar
    12     2     3   ar
    13     3     4   ar
    14     4    18    1
    15    18    19    2
    16    18    20   am
    17    20    22    1
    18    22    23   ar
    19    23    24   ar
    20    24    25   ar
    21    25    26   ar
    22     4     5   ar
    23     5     6   ar
    24    17    12   ar
    25     6     1   ar
    26    26    22   ar
    27     9    10    1
    28    20    21    1
@<TRIPOS>MOLECULE
*****
 26 28 0 0 0
SMALL
GASTEIGER

@<TRIPOS>ATOM
      1 C          60.7536   86.9107    9.8822 C.ar    1  UNL1        0.0505
      2 C          61.0027   88.3828   10.0261 C.ar    1  UNL1        0.0148
      3 C          60.6252   89.3193    8.9168 C.ar    1  UNL1        0.0058
      4 C          59.9984   88.7836    7.6638 C.ar    1  UNL1        0.0538
      5 C          59.7493   87.3114    7.5199 C.ar    1  UNL1        0.0058
      6 C          60.1269   86.3750    8.6292 C.ar    1  UNL1        0.0148
      7 C          62.3090   85.0591   10.8323 C.2     1  UNL1        0.2492
      8 O          63.1092   85.0804    9.5637 O.2     1  UNL1       -0.2698
      9 N          61.1312   85.9742   10.9915 N.am    1  UNL1       -0.2804
     10 H          60.6061   85.9602   11.8242 H       1  UNL1        0.1552
     11 C          63.5502   86.1320   13.3439 C.3     1  UNL1        0.0312
     12 C          63.3072   84.6591   13.1974 C.ar    1  UNL1       -0.0175
     13 C          63.6848   83.7226   14.3066 C.ar    1  UNL1       -0.0041
     14 C          63.4418   82.2497   14.1600 C.ar    1  UNL1       -0.0003
     15 C          62.8212   81.7133   12.9043 C.ar    1  UNL1        0.0001
     16 C          62.4436   82.6497   11.7950 C.ar    1  UNL1        0.0042
     17 C          62.6866   84.1226   11.9416 C.ar    1  UNL1        0.0497
     18 C          59.6208   89.7200    6.5545 C.2     1  UNL1        0.2509
     19 O          58.1770   89.9198    6.2004 O.2     1  UNL1       -0.2698
     20 N          60.6871   90.4567    5.7992 N.am    1  UNL1       -0.2606
     21 H          61.6347   90.3256    6.0316 H       1  UNL1        0.1571
     22 C          60.3095   91.3931    4.6900 C.ar    1  UNL1        0.1658
     23 N          61.2360   91.9420    3.6458 N.ar    1  UNL1       -0.2224
     24 C          60.4383   92.8332    2.7406 C.ar    1  UNL1        0.1079
     25 C          59.0187   92.8352    3.2253 C.ar    1  UNL1        0.0588
     26 S          58.9392   91.9451    4.4301 S.2     1  UNL1       -0.0508
@<TRIPOS>BOND
     1    11    12    1
     2    12    13   ar
     3    13    14   ar
     4    14    15   ar
     5    15    16   ar
     6    16    17   ar
     7    17     7    1
     8     7     8    2
     9     7     9   am
    10     9     1    1
    11     1     2   ar
    12     2     3   ar
    13     3     4   ar
    14     4    18    1
    15    18    19    2
    16    18    20   am
    17    20    22    1
    18    22    23   ar
    19    23    24   ar
    20    24    25   ar
    21    25    26   ar
    22     4     5   ar
    23     5     6   ar
    24    17    12   ar
    25     6     1   ar
    26    26    22   ar
    27     9    10    1
    28    20    21    1
@<TRIPOS>MOLECULE
*****
 26 28 0 0 0
SMALL
GASTEIGER

@<TRIPOS>ATOM
      1 C          44.7137   75.1557   18.0752 C.ar    1  UNL1        0.0505
      2 C          44.9328   75.2160   16.5925 C.ar    1  UNL1        0.0148
      3 C          45.0733   73.9484   15.8030 C.ar    1  UNL1        0.0058
      4 C          44.9947   72.6205   16.4961 C.ar    1  UNL1        0.0538
      5 C          44.7756   72.5602   17.9788 C.ar    1  UNL1        0.0058
      6 C          44.6351   73.8278   18.7683 C.ar    1  UNL1        0.0148
      7 C          45.7955   77.1359   19.3632 C.2     1  UNL1        0.2492
      8 O          47.1582   76.5808   19.0719 O.2     1  UNL1       -0.2698
      9 N          44.5733   76.4233   18.8648 N.am    1  UNL1       -0.2804
     10 H          43.6788   76.7876   19.0560 H       1  UNL1        0.1552
     11 C          45.5193   77.0210   22.3482 C.3     1  UNL1        0.0312
     12 C          45.5169   78.3461   21.6452 C.ar    1  UNL1       -0.0175
     13 C          45.3765   79.6137   22.4348 C.ar    1  UNL1       -0.0041
     14 C          45.3741   80.9388   21.7318 C.ar    1  UNL1       -0.0003
     15 C          45.5122   80.9962   20.2393 C.ar    1  UNL1        0.0001
     16 C          45.6526   79.7286   19.4498 C.ar    1  UNL1        0.0042
     17 C          45.6550   78.4035   20.1528 C.ar    1  UNL1        0.0497
     18 C          45.1352   71.3529   15.7065 C.2     1  UNL1        0.2509
     19 O          45.5193   70.0779   16.3969 O.2     1  UNL1       -0.2698
     20 N          44.8914   71.3603   14.2264 N.am    1  UNL1       -0.2606
     21 H          44.6393   72.1971   13.7733 H       1  UNL1        0.1571
     22 C          45.0319   70.0927   13.4368 C.ar    1  UNL1        0.1658
     23 N          46.2050   69.1585   13.4703 N.ar    1  UNL1       -0.2224
     24 C          45.9221   68.0252   12.5293 C.ar    1  UNL1        0.1079
     25 C          44.5740   68.2590   11.9142 C.ar    1  UNL1        0.0588
     26 S          44.0239   69.5368   12.4751 S.2     1  UNL1       -0.0508
@<TRIPOS>BOND
     1    11    12    1
     2    12    13   ar
     3    13    14   ar
     4    14    15   ar
     5    15    16   ar
     6    16    17   ar
     7    17     7    1
     8     7     8    2
     9     7     9   am
    10     9     1    1
    11     1     2   ar
    12     2     3   ar
    13     3     4   ar
    14     4    18    1
    15    18    19    2
    16    18    20   am
    17    20    22    1
    18    22    23   ar
    19    23    24   ar
    20    24    25   ar
    21    25    26   ar
    22     4     5   ar
    23     5     6   ar
    24    17    12   ar
    25     6     1   ar
    26    26    22   ar
    27     9    10    1
    28    20    21    1
@<TRIPOS>MOLECULE
*****
 26 28 0 0 0
SMALL
GASTEIGER

@<TRIPOS>ATOM
      1 C          44.4879   75.1267   18.2420 C.ar    1  UNL1        0.0505
      2 C          44.7963   73.8163   18.9036 C.ar    1  UNL1        0.0148
      3 C          44.8729   72.5622   18.0843 C.ar    1  UNL1        0.0058
      4 C          44.6412   72.6185   16.6034 C.ar    1  UNL1        0.0538
      5 C          44.3328   73.9289   15.9418 C.ar    1  UNL1        0.0058
      6 C          44.2561   75.1830   16.7611 C.ar    1  UNL1        0.0148
      7 C          45.6480   77.1934   19.3065 C.2     1  UNL1        0.2492
      8 O          46.9615   76.7518   18.7322 O.2     1  UNL1       -0.2698
      9 N          44.4112   76.3809   19.0614 N.am    1  UNL1       -0.2804
     10 H          43.5491   76.6707   19.4382 H       1  UNL1        0.1552
     11 C          45.7243   79.8726   17.9589 C.3     1  UNL1        0.0312
     12 C          45.6095   79.7871   19.4521 C.ar    1  UNL1       -0.0175
     13 C          45.5328   81.0411   20.2715 C.ar    1  UNL1       -0.0041
     14 C          45.4180   80.9556   21.7646 C.ar    1  UNL1       -0.0003
     15 C          45.3798   79.6160   22.4384 C.ar    1  UNL1        0.0001
     16 C          45.4565   78.3620   21.6190 C.ar    1  UNL1        0.0042
     17 C          45.5713   78.4475   20.1259 C.ar    1  UNL1        0.0497
     18 C          44.7179   71.3644   15.7840 C.2     1  UNL1        0.2509
     19 O          44.5805   70.0258   16.4468 O.2     1  UNL1       -0.2698
     20 N          44.9319   71.4488   14.3017 N.am    1  UNL1       -0.2606
     21 H          45.0221   72.3274   13.8667 H       1  UNL1        0.1571
     22 C          45.0086   70.1948   13.4823 C.ar    1  UNL1        0.1658
     23 N          43.9299   69.6581   12.5889 N.ar    1  UNL1       -0.2224
     24 C          44.4320   68.3888   11.9669 C.ar    1  UNL1        0.1079
     25 C          45.8211   68.1411   12.4760 C.ar    1  UNL1        0.0588
     26 S          46.1774   69.2572   13.4126 S.2     1  UNL1       -0.0508
@<TRIPOS>BOND
     1    11    12    1
     2    12    13   ar
     3    13    14   ar
     4    14    15   ar
     5    15    16   ar
     6    16    17   ar
     7    17     7    1
     8     7     8    2
     9     7     9   am
    10     9     1    1
    11     1     2   ar
    12     2     3   ar
    13     3     4   ar
    14     4    18    1
    15    18    19    2
    16    18    20   am
    17    20    22    1
    18    22    23   ar
    19    23    24   ar
    20    24    25   ar
    21    25    26   ar
    22     4     5   ar
    23     5     6   ar
    24    17    12   ar
    25     6     1   ar
    26    26    22   ar
    27     9    10    1
    28    20    21    1
@<TRIPOS>MOLECULE
*****
 26 28 0 0 0
SMALL
GASTEIGER

@<TRIPOS>ATOM
      1 C          56.5621   94.0249   -3.0714 C.ar    1  UNL1        0.0505
      2 C          57.9013   94.2547   -3.7069 C.ar    1  UNL1        0.0148
      3 C          59.1559   93.9468   -2.9447 C.ar    1  UNL1        0.0058
      4 C          59.0714   93.4090   -1.5470 C.ar    1  UNL1        0.0538
      5 C          57.7322   93.1791   -0.9115 C.ar    1  UNL1        0.0058
      6 C          56.4776   93.4871   -1.6737 C.ar    1  UNL1        0.0148
      7 C          54.7429   95.7224   -3.8189 C.2     1  UNL1        0.2492
      8 O          55.4329   96.8041   -3.0419 O.2     1  UNL1       -0.2698
      9 N          55.3074   94.3328   -3.8337 N.am    1  UNL1       -0.2804
     10 H          54.8546   93.6229   -4.3438 H       1  UNL1        0.1552
     11 C          52.1178   95.9017   -2.3778 C.3     1  UNL1        0.0312
     12 C          52.1757   96.1200   -3.8607 C.ar    1  UNL1       -0.0175
     13 C          50.9211   96.4280   -4.6230 C.ar    1  UNL1       -0.0041
     14 C          50.9790   96.6463   -6.1059 C.ar    1  UNL1       -0.0003
     15 C          52.2915   96.5566   -6.8264 C.ar    1  UNL1        0.0001
     16 C          53.5461   96.2487   -6.0641 C.ar    1  UNL1        0.0042
     17 C          53.4882   96.0304   -4.5812 C.ar    1  UNL1        0.0497
     18 C          60.3261   93.1010   -0.7847 C.2     1  UNL1        0.2509
     19 O          60.5131   91.7489   -0.1629 O.2     1  UNL1       -0.2698
     20 N          61.3937   94.1453   -0.6442 N.am    1  UNL1       -0.2606
     21 H          61.2709   95.0328   -1.0523 H       1  UNL1        0.1571
     22 C          62.6483   93.8374    0.1181 C.ar    1  UNL1        0.1658
     23 N          62.7274   93.4399    1.5623 N.ar    1  UNL1       -0.2224
     24 C          64.1720   93.2298    1.9068 C.ar    1  UNL1        0.1079
     25 C          64.9859   93.4974    0.6754 C.ar    1  UNL1        0.0588
     26 S          64.0441   93.8729   -0.4300 S.2     1  UNL1       -0.0508
@<TRIPOS>BOND
     1    11    12    1
     2    12    13   ar
     3    13    14   ar
     4    14    15   ar
     5    15    16   ar
     6    16    17   ar
     7    17     7    1
     8     7     8    2
     9     7     9   am
    10     9     1    1
    11     1     2   ar
    12     2     3   ar
    13     3     4   ar
    14     4    18    1
    15    18    19    2
    16    18    20   am
    17    20    22    1
    18    22    23   ar
    19    23    24   ar
    20    24    25   ar
    21    25    26   ar
    22     4     5   ar
    23     5     6   ar
    24    17    12   ar
    25     6     1   ar
    26    26    22   ar
    27     9    10    1
    28    20    21    1
