@<TRIPOS>MOLECULE
*****
 30 34 0 0 0
SMALL
GASTEIGER

@<TRIPOS>ATOM
      1 C          62.7390   89.7185   14.7892 C.3     1  UNL1        0.1316
      2 N          63.5124   90.4457   13.7294 N.ar    1  UNL1       -0.3124
      3 C          63.1943   90.4666   12.2637 C.ar    1  UNL1        0.1329
      4 N          64.2250   91.3134   11.5777 N.ar    1  UNL1       -0.2303
      5 C          65.1801   91.8159   12.6196 C.ar    1  UNL1        0.0983
      6 C          66.3939   92.6925   12.5292 C.ar    1  UNL1        0.0191
      7 C          67.1673   93.0328   13.7685 C.ar    1  UNL1        0.0016
      8 C          66.7268   92.4965   15.0983 C.ar    1  UNL1        0.0016
      9 C          65.5130   91.6199   15.1888 C.ar    1  UNL1        0.0188
     10 C          64.7396   91.2796   13.9494 C.ar    1  UNL1        0.0787
     11 C          66.8343   93.2288   11.1993 C.ar    1  UNL1        0.0015
     12 C          67.7362   92.4116   10.3225 C.ar    1  UNL1        0.0000
     13 C          68.1766   92.9479    8.9926 C.ar    1  UNL1        0.0000
     14 C          67.7152   94.3014    8.5397 C.ar    1  UNL1        0.0000
     15 C          66.8133   95.1186    9.4166 C.ar    1  UNL1        0.0000
     16 C          66.3729   94.5823   10.7464 C.ar    1  UNL1        0.0000
     17 C          62.0470   89.7639   11.6003 C.3     1  UNL1        0.1852
     18 C          62.1735   88.3198   11.2151 C.2     1  UNL1        0.3563
     19 N          62.5936   87.3050   12.2367 N.2     1  UNL1       -0.0039
     20 C          62.7201   85.8609   11.8514 C.2     1  UNL1        0.3159
     21 C          62.4267   85.4315   10.4444 C.3     1  UNL1        0.2333
     22 C          62.0066   86.4463    9.4228 C.2     1  UNL1        0.3644
     23 O          61.7132   86.0170    8.0159 O.2     1  UNL1       -0.2422
     24 N          61.8801   87.8905    9.8081 N.am    1  UNL1        0.0288
     25 N          63.1402   84.8461   12.8731 N.pl3   1  UNL1       -0.1888
     26 C          62.8065   83.3976   12.6726 C.3     1  UNL1        0.2343
     27 C          63.2266   82.3828   13.6942 C.3     1  UNL1        0.1929
     28 O          63.9802   82.8166   14.9164 O.3     1  UNL1       -0.3449
     29 C          64.3139   84.2652   15.1170 C.3     1  UNL1        0.1929
     30 C          63.8939   85.2800   14.0953 C.3     1  UNL1        0.2343
@<TRIPOS>BOND
     1     1     2    1
     2     2     3   ar
     3     3    17    1
     4    17    18    1
     5    18    19    1
     6    19    20    2
     7    20    25    1
     8    25    26    1
     9    26    27    1
    10    27    28    1
    11    28    29    1
    12    29    30    1
    13    20    21    1
    14    21    22    1
    15    22    23    2
    16    22    24    1
    17     3     4   ar
    18     4     5   ar
    19     5     6   ar
    20     6    11    1
    21    11    12   ar
    22    12    13   ar
    23    13    14   ar
    24    14    15   ar
    25    15    16   ar
    26     6     7   ar
    27     7     8   ar
    28     8     9   ar
    29     9    10   ar
    30    10     2   ar
    31    24    18    2
    32    10     5   ar
    33    30    25    1
    34    16    11   ar
@<TRIPOS>MOLECULE
*****
 30 34 0 0 0
SMALL
GASTEIGER

@<TRIPOS>ATOM
      1 C          62.2585   90.8676   10.4528 C.3     1  UNL1        0.1316
      2 N          62.5372   89.5933   11.1934 N.ar    1  UNL1       -0.3124
      3 C          63.0419   89.4844   12.6018 C.ar    1  UNL1        0.1329
      4 N          63.1767   88.0280   12.9345 N.ar    1  UNL1       -0.2303
      5 C          62.7552   87.2369   11.7318 C.ar    1  UNL1        0.0983
      6 C          62.6803   85.7605   11.4775 C.ar    1  UNL1        0.0191
      7 C          62.2101   85.2515   10.1472 C.ar    1  UNL1        0.0016
      8 C          61.8149   86.2189    9.0712 C.ar    1  UNL1        0.0016
      9 C          61.8898   87.6953    9.3255 C.ar    1  UNL1        0.0188
     10 C          62.3600   88.2043   10.6558 C.ar    1  UNL1        0.0787
     11 C          63.0756   84.7931   12.5536 C.ar    1  UNL1        0.0015
     12 C          62.6990   83.3459   12.4364 C.ar    1  UNL1        0.0000
     13 C          63.0943   82.3785   13.5125 C.ar    1  UNL1        0.0000
     14 C          63.8662   82.8583   14.7058 C.ar    1  UNL1        0.0000
     15 C          64.2428   84.3056   14.8230 C.ar    1  UNL1        0.0000
     16 C          63.8475   85.2729   13.7469 C.ar    1  UNL1        0.0000
     17 C          63.3567   90.6307   13.5167 C.3     1  UNL1        0.1852
     18 C          64.7016   91.2919   13.4553 C.2     1  UNL1        0.3563
     19 N          65.0551   92.1661   12.2887 N.2     1  UNL1       -0.0039
     20 C          66.4001   92.8273   12.2273 C.2     1  UNL1        0.3159
     21 C          67.3917   92.6143   13.3325 C.3     1  UNL1        0.2333
     22 C          67.0383   91.7401   14.4991 C.2     1  UNL1        0.3644
     23 O          68.0298   91.5271   15.6043 O.2     1  UNL1       -0.2422
     24 N          65.6932   91.0789   14.5605 N.am    1  UNL1        0.0288
     25 N          66.7535   93.7015   11.0608 N.pl3   1  UNL1       -0.1888
     26 C          66.4177   95.1631   11.0899 C.3     1  UNL1        0.2343
     27 C          66.7711   96.0373    9.9234 C.3     1  UNL1        0.1929
     28 O          67.4604   95.4498    8.7276 O.3     1  UNL1       -0.3449
     29 C          67.7963   93.9882    8.6984 C.3     1  UNL1        0.1929
     30 C          67.4428   93.1140    9.8650 C.3     1  UNL1        0.2343
@<TRIPOS>BOND
     1     1     2    1
     2     2     3   ar
     3     3    17    1
     4    17    18    1
     5    18    19    1
     6    19    20    2
     7    20    25    1
     8    25    26    1
     9    26    27    1
    10    27    28    1
    11    28    29    1
    12    29    30    1
    13    20    21    1
    14    21    22    1
    15    22    23    2
    16    22    24    1
    17     3     4   ar
    18     4     5   ar
    19     5     6   ar
    20     6    11    1
    21    11    12   ar
    22    12    13   ar
    23    13    14   ar
    24    14    15   ar
    25    15    16   ar
    26     6     7   ar
    27     7     8   ar
    28     8     9   ar
    29     9    10   ar
    30    10     2   ar
    31    24    18    2
    32    10     5   ar
    33    30    25    1
    34    16    11   ar
@<TRIPOS>MOLECULE
*****
 30 34 0 0 0
SMALL
GASTEIGER

@<TRIPOS>ATOM
      1 C          63.8477   92.3922   10.0687 C.3     1  UNL1        0.1316
      2 N          63.6794   91.3769   11.1599 N.ar    1  UNL1       -0.3124
      3 C          62.6875   90.2518   11.1720 C.ar    1  UNL1        0.1329
      4 N          62.8685   89.4879   12.4502 N.ar    1  UNL1       -0.2303
      5 C          63.9725   90.1411   13.2280 C.ar    1  UNL1        0.0983
      6 C          64.5861   89.8235   14.5595 C.ar    1  UNL1        0.0191
      7 C          65.7008   90.6733   15.0934 C.ar    1  UNL1        0.0016
      8 C          66.2019   91.8407   14.2959 C.ar    1  UNL1        0.0016
      9 C          65.5883   92.1583   12.9645 C.ar    1  UNL1        0.0188
     10 C          64.4736   91.3084   12.4306 C.ar    1  UNL1        0.0787
     11 C          64.0849   88.6560   15.3569 C.ar    1  UNL1        0.0015
     12 C          64.3959   87.2569   14.9148 C.ar    1  UNL1        0.0000
     13 C          63.8947   86.0894   15.7123 C.ar    1  UNL1        0.0000
     14 C          63.0825   86.3212   16.9519 C.ar    1  UNL1        0.0000
     15 C          62.7715   87.7205   17.3940 C.ar    1  UNL1        0.0000
     16 C          63.2726   88.8878   16.5965 C.ar    1  UNL1        0.0000
     17 C          61.6896   89.9444   10.0950 C.3     1  UNL1        0.1852
     18 C          61.4240   88.5213    9.7026 C.2     1  UNL1        0.3563
     19 N          62.2193   87.4112   10.3233 N.2     1  UNL1       -0.0039
     20 C          61.9537   85.9881    9.9309 C.2     1  UNL1        0.3159
     21 C          60.8928   85.6749    8.9177 C.3     1  UNL1        0.2333
     22 C          60.0975   86.7850    8.2970 C.2     1  UNL1        0.3644
     23 O          59.0366   86.4719    7.2839 O.2     1  UNL1       -0.2422
     24 N          60.3631   88.2082    8.6895 N.am    1  UNL1        0.0288
     25 N          62.7490   84.8780   10.5516 N.pl3   1  UNL1       -0.1888
     26 C          62.7630   84.7079   12.0418 C.3     1  UNL1        0.2343
     27 C          63.5583   83.5978   12.6625 C.3     1  UNL1        0.1929
     28 O          64.3396   82.6579   11.7930 O.3     1  UNL1       -0.3449
     29 C          64.3256   82.8280   10.3027 C.3     1  UNL1        0.1929
     30 C          63.5303   83.9380    9.6820 C.3     1  UNL1        0.2343
@<TRIPOS>BOND
     1     1     2    1
     2     2     3   ar
     3     3    17    1
     4    17    18    1
     5    18    19    1
     6    19    20    2
     7    20    25    1
     8    25    26    1
     9    26    27    1
    10    27    28    1
    11    28    29    1
    12    29    30    1
    13    20    21    1
    14    21    22    1
    15    22    23    2
    16    22    24    1
    17     3     4   ar
    18     4     5   ar
    19     5     6   ar
    20     6    11    1
    21    11    12   ar
    22    12    13   ar
    23    13    14   ar
    24    14    15   ar
    25    15    16   ar
    26     6     7   ar
    27     7     8   ar
    28     8     9   ar
    29     9    10   ar
    30    10     2   ar
    31    24    18    2
    32    10     5   ar
    33    30    25    1
    34    16    11   ar
@<TRIPOS>MOLECULE
*****
 30 34 0 0 0
SMALL
GASTEIGER

@<TRIPOS>ATOM
      1 C          64.5901   87.7470   14.8048 C.3     1  UNL1        0.1316
      2 N          63.7164   87.9085   13.5963 N.ar    1  UNL1       -0.3124
      3 C          63.1633   89.2016   13.0746 C.ar    1  UNL1        0.1329
      4 N          62.3474   88.8976   11.8532 N.ar    1  UNL1       -0.2303
      5 C          62.3962   87.4166   11.6200 C.ar    1  UNL1        0.0983
      6 C          61.7795   86.5457   10.5659 C.ar    1  UNL1        0.0191
      7 C          62.0089   85.0635   10.5890 C.ar    1  UNL1        0.0016
      8 C          62.8549   84.4523   11.6663 C.ar    1  UNL1        0.0016
      9 C          63.4716   85.3232   12.7204 C.ar    1  UNL1        0.0188
     10 C          63.2423   86.8053   12.6973 C.ar    1  UNL1        0.0787
     11 C          60.9334   87.1570    9.4886 C.ar    1  UNL1        0.0015
     12 C          60.1431   86.2773    8.5658 C.ar    1  UNL1        0.0000
     13 C          59.2970   86.8887    7.4885 C.ar    1  UNL1        0.0000
     14 C          59.2413   88.3797    7.3341 C.ar    1  UNL1        0.0000
     15 C          60.0317   89.2593    8.2569 C.ar    1  UNL1        0.0000
     16 C          60.8777   88.6480    9.3342 C.ar    1  UNL1        0.0000
     17 C          63.3870   90.5602   13.6699 C.3     1  UNL1        0.1852
     18 C          64.7368   91.2075   13.5754 C.2     1  UNL1        0.3563
     19 N          65.1225   91.9603   12.3366 N.2     1  UNL1       -0.0039
     20 C          66.4723   92.6076   12.2420 C.2     1  UNL1        0.3159
     21 C          67.4365   92.5021   13.3863 C.3     1  UNL1        0.2333
     22 C          67.0508   91.7494   14.6251 C.2     1  UNL1        0.3644
     23 O          68.0149   91.6440   15.7693 O.2     1  UNL1       -0.2422
     24 N          65.7009   91.1021   14.7196 N.am    1  UNL1        0.0288
     25 N          66.8580   93.3603   11.0032 N.pl3   1  UNL1       -0.1888
     26 C          66.4476   94.7936   10.8382 C.3     1  UNL1        0.2343
     27 C          66.8333   95.5463    9.5994 C.3     1  UNL1        0.1929
     28 O          67.6293   94.8658    8.5256 O.3     1  UNL1       -0.3449
     29 C          68.0398   93.4325    8.6906 C.3     1  UNL1        0.1929
     30 C          67.6541   92.6797    9.9294 C.3     1  UNL1        0.2343
@<TRIPOS>BOND
     1     1     2    1
     2     2     3   ar
     3     3    17    1
     4    17    18    1
     5    18    19    1
     6    19    20    2
     7    20    25    1
     8    25    26    1
     9    26    27    1
    10    27    28    1
    11    28    29    1
    12    29    30    1
    13    20    21    1
    14    21    22    1
    15    22    23    2
    16    22    24    1
    17     3     4   ar
    18     4     5   ar
    19     5     6   ar
    20     6    11    1
    21    11    12   ar
    22    12    13   ar
    23    13    14   ar
    24    14    15   ar
    25    15    16   ar
    26     6     7   ar
    27     7     8   ar
    28     8     9   ar
    29     9    10   ar
    30    10     2   ar
    31    24    18    2
    32    10     5   ar
    33    30    25    1
    34    16    11   ar
@<TRIPOS>MOLECULE
*****
 30 34 0 0 0
SMALL
GASTEIGER

@<TRIPOS>ATOM
      1 C          62.7444   84.7544    7.6709 C.3     1  UNL1        0.1316
      2 N          62.7778   84.9883    9.1522 N.ar    1  UNL1       -0.3124
      3 C          62.2385   86.1917    9.8671 C.ar    1  UNL1        0.1329
      4 N          62.4837   86.0070   11.3354 N.ar    1  UNL1       -0.2303
      5 C          63.1746   84.6895   11.5278 C.ar    1  UNL1        0.0983
      6 C          63.6616   83.9817   12.7574 C.ar    1  UNL1        0.0191
      7 C          64.3304   82.6444   12.6377 C.ar    1  UNL1        0.0016
      8 C          64.5121   82.0149   11.2884 C.ar    1  UNL1        0.0016
      9 C          64.0251   82.7227   10.0588 C.ar    1  UNL1        0.0188
     10 C          63.3563   84.0599   10.1785 C.ar    1  UNL1        0.0787
     11 C          63.4799   84.6113   14.1067 C.ar    1  UNL1        0.0015
     12 C          64.3557   85.7551   14.5248 C.ar    1  UNL1        0.0000
     13 C          64.1739   86.3847   15.8741 C.ar    1  UNL1        0.0000
     14 C          63.1163   85.8705   16.8053 C.ar    1  UNL1        0.0000
     15 C          62.2405   84.7267   16.3872 C.ar    1  UNL1        0.0000
     16 C          62.4223   84.0971   15.0379 C.ar    1  UNL1        0.0000
     17 C          61.5712   87.3724    9.2263 C.3     1  UNL1        0.1852
     18 C          61.4770   88.6737    9.9664 C.2     1  UNL1        0.3563
     19 N          62.7262   89.3841   10.3964 N.2     1  UNL1       -0.0039
     20 C          62.6320   90.6853   11.1365 C.2     1  UNL1        0.3159
     21 C          61.2886   91.2763   11.4466 C.3     1  UNL1        0.2333
     22 C          60.0394   90.5659   11.0166 C.2     1  UNL1        0.3644
     23 O          58.6961   91.1568   11.3267 O.2     1  UNL1       -0.2422
     24 N          60.1336   89.2646   10.2765 N.am    1  UNL1        0.0288
     25 N          63.8812   91.3957   11.5665 N.pl3   1  UNL1       -0.1888
     26 C          64.6624   92.2059   10.5750 C.3     1  UNL1        0.2343
     27 C          65.9116   92.9162   11.0050 C.3     1  UNL1        0.1929
     28 O          66.3796   92.8164   12.4266 O.3     1  UNL1       -0.3449
     29 C          65.5983   92.0062   13.4182 C.3     1  UNL1        0.1929
     30 C          64.3492   91.2958   12.9882 C.3     1  UNL1        0.2343
@<TRIPOS>BOND
     1     1     2    1
     2     2     3   ar
     3     3    17    1
     4    17    18    1
     5    18    19    1
     6    19    20    2
     7    20    25    1
     8    25    26    1
     9    26    27    1
    10    27    28    1
    11    28    29    1
    12    29    30    1
    13    20    21    1
    14    21    22    1
    15    22    23    2
    16    22    24    1
    17     3     4   ar
    18     4     5   ar
    19     5     6   ar
    20     6    11    1
    21    11    12   ar
    22    12    13   ar
    23    13    14   ar
    24    14    15   ar
    25    15    16   ar
    26     6     7   ar
    27     7     8   ar
    28     8     9   ar
    29     9    10   ar
    30    10     2   ar
    31    24    18    2
    32    10     5   ar
    33    30    25    1
    34    16    11   ar
@<TRIPOS>MOLECULE
*****
 30 34 0 0 0
SMALL
GASTEIGER

@<TRIPOS>ATOM
      1 C          63.4697   89.8282   16.4588 C.3     1  UNL1        0.1316
      2 N          63.5222   88.8222   15.3474 N.ar    1  UNL1       -0.3124
      3 C          63.5737   89.1310   13.8804 C.ar    1  UNL1        0.1329
      4 N          63.6158   87.8305   13.1342 N.ar    1  UNL1       -0.2303
      5 C          63.5903   86.7179   14.1401 C.ar    1  UNL1        0.0983
      6 C          63.6123   85.2259   13.9872 C.ar    1  UNL1        0.0191
      7 C          63.5764   84.3469   15.2020 C.ar    1  UNL1        0.0016
      8 C          63.5186   84.9598   16.5698 C.ar    1  UNL1        0.0016
      9 C          63.4966   86.4518   16.7228 C.ar    1  UNL1        0.0188
     10 C          63.5325   87.3309   15.5079 C.ar    1  UNL1        0.0787
     11 C          63.6701   84.6130   12.6193 C.ar    1  UNL1        0.0015
     12 C          64.5482   83.4233   12.3670 C.ar    1  UNL1        0.0000
     13 C          64.6060   82.8104   10.9991 C.ar    1  UNL1        0.0000
     14 C          63.7857   83.3871    9.8836 C.ar    1  UNL1        0.0000
     15 C          62.9076   84.5768   10.1359 C.ar    1  UNL1        0.0000
     16 C          62.8498   85.1897   11.5038 C.ar    1  UNL1        0.0000
     17 C          63.5817   90.5000   13.2673 C.3     1  UNL1        0.1852
     18 C          64.8324   91.3276   13.2965 C.2     1  UNL1        0.3563
     19 N          65.0923   92.3324   12.2135 N.2     1  UNL1       -0.0039
     20 C          66.3430   93.1599   12.2427 C.2     1  UNL1        0.3159
     21 C          67.3338   92.9827   13.3550 C.3     1  UNL1        0.2333
     22 C          67.0739   91.9779   14.4379 C.2     1  UNL1        0.3644
     23 O          68.0646   91.8007   15.5501 O.2     1  UNL1       -0.2422
     24 N          65.8231   91.1503   14.4087 N.am    1  UNL1        0.0288
     25 N          66.6030   94.1647   11.1598 N.pl3   1  UNL1       -0.1888
     26 C          67.1962   93.7240    9.8545 C.3     1  UNL1        0.2343
     27 C          67.4561   94.7288    8.7715 C.3     1  UNL1        0.1929
     28 O          67.1229   96.1743    8.9938 O.3     1  UNL1       -0.3449
     29 C          66.5296   96.6150   10.2992 C.3     1  UNL1        0.1929
     30 C          66.2697   95.6102   11.3821 C.3     1  UNL1        0.2343
@<TRIPOS>BOND
     1     1     2    1
     2     2     3   ar
     3     3    17    1
     4    17    18    1
     5    18    19    1
     6    19    20    2
     7    20    25    1
     8    25    26    1
     9    26    27    1
    10    27    28    1
    11    28    29    1
    12    29    30    1
    13    20    21    1
    14    21    22    1
    15    22    23    2
    16    22    24    1
    17     3     4   ar
    18     4     5   ar
    19     5     6   ar
    20     6    11    1
    21    11    12   ar
    22    12    13   ar
    23    13    14   ar
    24    14    15   ar
    25    15    16   ar
    26     6     7   ar
    27     7     8   ar
    28     8     9   ar
    29     9    10   ar
    30    10     2   ar
    31    24    18    2
    32    10     5   ar
    33    30    25    1
    34    16    11   ar
@<TRIPOS>MOLECULE
*****
 30 34 0 0 0
SMALL
GASTEIGER

@<TRIPOS>ATOM
      1 C          60.3648   90.4819    9.1446 C.3     1  UNL1        0.1316
      2 N          61.0664   89.3270    9.7956 N.ar    1  UNL1       -0.3124
      3 C          61.9025   89.3908   11.0394 C.ar    1  UNL1        0.1329
      4 N          62.4080   88.0087   11.3296 N.ar    1  UNL1       -0.2303
      5 C          61.8843   87.0907   10.2651 C.ar    1  UNL1        0.0983
      6 C          62.0553   85.6181   10.0366 C.ar    1  UNL1        0.0191
      7 C          61.3972   84.9602    8.8602 C.ar    1  UNL1        0.0016
      8 C          60.5681   85.7749    7.9122 C.ar    1  UNL1        0.0016
      9 C          60.3971   87.2475    8.1406 C.ar    1  UNL1        0.0188
     10 C          61.0552   87.9054    9.3171 C.ar    1  UNL1        0.0787
     11 C          62.8845   84.8033   10.9847 C.ar    1  UNL1        0.0015
     12 C          63.7959   83.7355   10.4566 C.ar    1  UNL1        0.0000
     13 C          64.6250   82.9208   11.4047 C.ar    1  UNL1        0.0000
     14 C          64.5427   83.1739   12.8809 C.ar    1  UNL1        0.0000
     15 C          63.6312   84.2418   13.4090 C.ar    1  UNL1        0.0000
     16 C          62.8021   85.0565   12.4609 C.ar    1  UNL1        0.0000
     17 C          62.1837   90.6209   11.8505 C.3     1  UNL1        0.1852
     18 C          62.9641   90.5153   13.1271 C.2     1  UNL1        0.3563
     19 N          64.2820   91.2189   13.2609 N.2     1  UNL1       -0.0039
     20 C          65.0624   91.1133   14.5375 C.2     1  UNL1        0.3159
     21 C          64.5248   90.3040   15.6804 C.3     1  UNL1        0.2333
     22 C          63.2069   89.6003   15.5466 C.2     1  UNL1        0.3644
     23 O          62.6694   88.7910   16.6894 O.2     1  UNL1       -0.2422
     24 N          62.4265   89.7060   14.2699 N.am    1  UNL1        0.0288
     25 N          66.3803   91.8170   14.6714 N.pl3   1  UNL1       -0.1888
     26 C          66.6301   92.7260   15.8380 C.3     1  UNL1        0.2343
     27 C          67.9481   93.4297   15.9718 C.3     1  UNL1        0.1929
     28 O          69.0162   93.2243   14.9390 O.3     1  UNL1       -0.3449
     29 C          68.7664   92.3152   13.7722 C.3     1  UNL1        0.1929
     30 C          67.4485   91.6115   13.6384 C.3     1  UNL1        0.2343
@<TRIPOS>BOND
     1     1     2    1
     2     2     3   ar
     3     3    17    1
     4    17    18    1
     5    18    19    1
     6    19    20    2
     7    20    25    1
     8    25    26    1
     9    26    27    1
    10    27    28    1
    11    28    29    1
    12    29    30    1
    13    20    21    1
    14    21    22    1
    15    22    23    2
    16    22    24    1
    17     3     4   ar
    18     4     5   ar
    19     5     6   ar
    20     6    11    1
    21    11    12   ar
    22    12    13   ar
    23    13    14   ar
    24    14    15   ar
    25    15    16   ar
    26     6     7   ar
    27     7     8   ar
    28     8     9   ar
    29     9    10   ar
    30    10     2   ar
    31    24    18    2
    32    10     5   ar
    33    30    25    1
    34    16    11   ar
@<TRIPOS>MOLECULE
*****
 30 34 0 0 0
SMALL
GASTEIGER

@<TRIPOS>ATOM
      1 C          60.1504   90.5143    8.8082 C.3     1  UNL1        0.1316
      2 N          60.9057   89.3446    9.3661 N.ar    1  UNL1       -0.3124
      3 C          61.8971   89.3905   10.4909 C.ar    1  UNL1        0.1329
      4 N          62.4063   87.9978   10.7171 N.ar    1  UNL1       -0.2303
      5 C          61.7296   87.0912    9.7321 C.ar    1  UNL1        0.0983
      6 C          61.8381   85.6152    9.4876 C.ar    1  UNL1        0.0191
      7 C          61.0192   84.9716    8.4082 C.ar    1  UNL1        0.0016
      8 C          60.0918   85.8039    7.5733 C.ar    1  UNL1        0.0016
      9 C          59.9833   87.2799    7.8178 C.ar    1  UNL1        0.0188
     10 C          60.8022   87.9235    8.8972 C.ar    1  UNL1        0.0787
     11 C          62.7655   84.7829   10.3226 C.ar    1  UNL1        0.0015
     12 C          63.6978   83.8096    9.6643 C.ar    1  UNL1        0.0000
     13 C          64.6252   82.9772   10.4992 C.ar    1  UNL1        0.0000
     14 C          64.6204   83.1183   11.9926 C.ar    1  UNL1        0.0000
     15 C          63.6881   84.0917   12.6509 C.ar    1  UNL1        0.0000
     16 C          62.7607   84.9240   11.8160 C.ar    1  UNL1        0.0000
     17 C          62.3072   90.6143   11.2553 C.3     1  UNL1        0.1852
     18 C          63.2022   90.4861   12.4521 C.2     1  UNL1        0.3563
     19 N          62.9998   89.3607   13.4229 N.2     1  UNL1       -0.0039
     20 C          63.8948   89.2325   14.6198 C.2     1  UNL1        0.3159
     21 C          64.9923   90.2298   14.8459 C.3     1  UNL1        0.2333
     22 C          65.1947   91.3552   13.8750 C.2     1  UNL1        0.3644
     23 O          66.2922   92.3524   14.1011 O.2     1  UNL1       -0.2422
     24 N          64.2997   91.4833   12.6781 N.am    1  UNL1        0.0288
     25 N          63.6923   88.1072   15.5906 N.pl3   1  UNL1       -0.1888
     26 C          63.0360   88.3672   16.9140 C.3     1  UNL1        0.2343
     27 C          62.8335   87.2419   17.8849 C.3     1  UNL1        0.1929
     28 O          63.2874   85.8564   17.5323 O.3     1  UNL1       -0.3449
     29 C          63.9438   85.5962   16.2088 C.3     1  UNL1        0.1929
     30 C          64.1463   86.7216   15.2380 C.3     1  UNL1        0.2343
@<TRIPOS>BOND
     1     1     2    1
     2     2     3   ar
     3     3    17    1
     4    17    18    1
     5    18    19    1
     6    19    20    2
     7    20    25    1
     8    25    26    1
     9    26    27    1
    10    27    28    1
    11    28    29    1
    12    29    30    1
    13    20    21    1
    14    21    22    1
    15    22    23    2
    16    22    24    1
    17     3     4   ar
    18     4     5   ar
    19     5     6   ar
    20     6    11    1
    21    11    12   ar
    22    12    13   ar
    23    13    14   ar
    24    14    15   ar
    25    15    16   ar
    26     6     7   ar
    27     7     8   ar
    28     8     9   ar
    29     9    10   ar
    30    10     2   ar
    31    24    18    2
    32    10     5   ar
    33    30    25    1
    34    16    11   ar
@<TRIPOS>MOLECULE
*****
 30 34 0 0 0
SMALL
GASTEIGER

@<TRIPOS>ATOM
      1 C          63.2141   82.4480   10.1347 C.3     1  UNL1        0.1316
      2 N          63.1969   83.5154   11.1884 N.ar    1  UNL1       -0.3124
      3 C          62.7451   84.9333   10.9998 C.ar    1  UNL1        0.1329
      4 N          62.8975   85.6465   12.3106 N.ar    1  UNL1       -0.2303
      5 C          63.4435   84.6694   13.3092 C.ar    1  UNL1        0.0983
      6 C          63.7960   84.8089   14.7605 C.ar    1  UNL1        0.0191
      7 C          64.3336   83.6313   15.5183 C.ar    1  UNL1        0.0016
      8 C          64.5187   82.3143   14.8248 C.ar    1  UNL1        0.0016
      9 C          64.1661   82.1748   13.3735 C.ar    1  UNL1        0.0188
     10 C          63.6285   83.3523   12.6157 C.ar    1  UNL1        0.0787
     11 C          63.6110   86.1261   15.4541 C.ar    1  UNL1        0.0015
     12 C          64.1193   87.3862   14.8187 C.ar    1  UNL1        0.0000
     13 C          63.9342   88.7033   15.5122 C.ar    1  UNL1        0.0000
     14 C          63.2408   88.7603   16.8411 C.ar    1  UNL1        0.0000
     15 C          62.7325   87.5001   17.4765 C.ar    1  UNL1        0.0000
     16 C          62.9176   86.1831   16.7829 C.ar    1  UNL1        0.0000
     17 C          62.2312   85.5326    9.7244 C.3     1  UNL1        0.1852
     18 C          61.8815   86.9902    9.6682 C.2     1  UNL1        0.3563
     19 N          62.7077   87.9893   10.4225 N.2     1  UNL1       -0.0039
     20 C          62.3580   89.4469   10.3663 C.2     1  UNL1        0.3159
     21 C          61.1820   89.9054    9.5557 C.3     1  UNL1        0.2333
     22 C          60.3558   88.9062    8.8013 C.2     1  UNL1        0.3644
     23 O          59.1800   89.3646    7.9907 O.2     1  UNL1       -0.2422
     24 N          60.7056   87.4486    8.8576 N.am    1  UNL1        0.0288
     25 N          63.1842   90.4460   11.1207 N.pl3   1  UNL1       -0.1888
     26 C          63.9192   91.5235   10.3799 C.3     1  UNL1        0.2343
     27 C          64.7454   92.5226   11.1343 C.3     1  UNL1        0.1929
     28 O          64.8366   92.4444   12.6294 O.3     1  UNL1       -0.3449
     29 C          64.1015   91.3669   13.3703 C.3     1  UNL1        0.1929
     30 C          63.2753   90.3677   12.6159 C.3     1  UNL1        0.2343
@<TRIPOS>BOND
     1     1     2    1
     2     2     3   ar
     3     3    17    1
     4    17    18    1
     5    18    19    1
     6    19    20    2
     7    20    25    1
     8    25    26    1
     9    26    27    1
    10    27    28    1
    11    28    29    1
    12    29    30    1
    13    20    21    1
    14    21    22    1
    15    22    23    2
    16    22    24    1
    17     3     4   ar
    18     4     5   ar
    19     5     6   ar
    20     6    11    1
    21    11    12   ar
    22    12    13   ar
    23    13    14   ar
    24    14    15   ar
    25    15    16   ar
    26     6     7   ar
    27     7     8   ar
    28     8     9   ar
    29     9    10   ar
    30    10     2   ar
    31    24    18    2
    32    10     5   ar
    33    30    25    1
    34    16    11   ar
