@<TRIPOS>MOLECULE
*****
 37 40 0 0 0
SMALL
GASTEIGER

@<TRIPOS>ATOM
      1 C          62.4151   80.4530   12.3720 C.ar    1  UNL1        0.0067
      2 C          62.4040   81.7450   11.6099 C.ar    1  UNL1        0.0156
      3 C          62.7596   83.0272   12.3023 C.ar    1  UNL1        0.0673
      4 C          63.1263   83.0175   13.7568 C.ar    1  UNL1        0.0295
      5 C          63.1374   81.7256   14.5188 C.ar    1  UNL1        0.0315
      6 C          62.7818   80.4433   13.8264 C.ar    1  UNL1        0.1362
      7 F          62.7929   79.1514   14.5885 F       1  UNL1       -0.2045
      8 C          63.4287   84.4280   14.1679 C.ar    1  UNL1        0.0875
      9 C          63.2489   85.3094   12.9676 C.ar    1  UNL1        0.0939
     10 N          62.8354   84.4437   11.8146 N.ar    1  UNL1       -0.2745
     11 C          63.4478   86.7957   12.9274 C.ar    1  UNL1        0.0982
     12 C          64.2163   87.4793   14.0192 C.ar    1  UNL1        0.0220
     13 C          64.4151   88.9655   13.9790 C.ar    1  UNL1        0.0231
     14 C          63.8455   89.7681   12.8469 C.ar    1  UNL1        0.1410
     15 C          63.0771   89.0844   11.7551 C.ar    1  UNL1        0.1187
     16 N          62.8782   87.5982   11.7954 N.ar    1  UNL1       -0.2409
     17 S          64.0444   91.2543   12.8068 S.O2    1  UNL1        0.0619
     18 O          63.9353   91.3094   14.3018 O.2     1  UNL1       -0.1529
     19 O          64.1536   91.1993   11.3118 O.2     1  UNL1       -0.1529
     20 N          64.2433   92.7405   12.7665 N.3     1  UNL1       -0.1723
     21 H          63.9802   93.0978   13.6850 H       1  UNL1        0.1491
     22 C          65.5958   93.3080   12.4524 C.3     1  UNL1        0.1701
     23 C          65.7799   94.1865   11.2507 C.3     1  UNL1        0.0278
     24 C          66.7643   92.9969   13.3400 C.3     1  UNL1        0.4118
     25 F          67.9328   92.6858   14.2276 F       1  UNL1       -0.1685
     26 F          67.2940   92.0449   12.3089 F       1  UNL1       -0.1685
     27 F          66.2345   93.9489   14.3710 F       1  UNL1       -0.1685
     28 C          62.5481   84.9122   10.4189 C.ar    1  UNL1        0.2369
     29 N          61.3419   85.7611   10.1461 N.ar    1  UNL1       -0.2095
     30 C          61.0545   86.2296    8.7505 C.ar    1  UNL1        0.1037
     31 C          61.9734   85.8492    7.6275 C.ar    1  UNL1        0.0415
     32 C          63.1796   85.0002    7.9003 C.ar    1  UNL1        0.1037
     33 N          63.4670   84.5317    9.2960 N.ar    1  UNL1       -0.2095
     34 C          62.8049   78.7522   10.4471 C.3     1  UNL1        0.0051
     35 C          62.0595   79.1708   11.6796 C.3     1  UNL1        0.0287
     36 C          63.8389   84.8780   15.5388 C.1     1  UNL1        0.1020
     37 N          64.2491   85.3281   16.9097 N.1     1  UNL1       -0.1908
@<TRIPOS>BOND
     1    34    35    1
     2    35     1    1
     3     1     2   ar
     4     2     3   ar
     5     3     4   ar
     6     4     5   ar
     7     5     6   ar
     8     6     7    1
     9     4     8   ar
    10     8    36    1
    11    36    37    3
    12     8     9   ar
    13     9    11    1
    14    11    12   ar
    15    12    13   ar
    16    13    14   ar
    17    14    17    1
    18    17    18    2
    19    17    19    2
    20    17    20    1
    21    20    22    1
    22    22    23    1
    23    22    24    1
    24    24    25    1
    25    24    26    1
    26    24    27    1
    27    14    15   ar
    28    15    16   ar
    29     9    10   ar
    30    10    28    1
    31    28    29   ar
    32    29    30   ar
    33    30    31   ar
    34    31    32   ar
    35    32    33   ar
    36     6     1   ar
    37    16    11   ar
    38    33    28   ar
    39    10     3   ar
    40    20    21    1
@<TRIPOS>MOLECULE
*****
 37 40 0 0 0
SMALL
GASTEIGER

@<TRIPOS>ATOM
      1 C          62.2782   80.6148   13.3690 C.ar    1  UNL1        0.0067
      2 C          62.3923   81.9451   14.0524 C.ar    1  UNL1        0.0156
      3 C          62.6343   83.1853   13.2440 C.ar    1  UNL1        0.0673
      4 C          62.7622   83.0950   11.7522 C.ar    1  UNL1        0.0295
      5 C          62.6481   81.7646   11.0688 C.ar    1  UNL1        0.0315
      6 C          62.4061   80.5245   11.8772 C.ar    1  UNL1        0.1362
      7 F          62.2920   79.1941   11.1938 F       1  UNL1       -0.2045
      8 C          62.9973   84.4786   11.2226 C.ar    1  UNL1        0.0875
      9 C          63.0146   85.4239   12.3871 C.ar    1  UNL1        0.0939
     10 N          62.7903   84.6247   13.6364 N.ar    1  UNL1       -0.2745
     11 C          63.2203   86.9081   12.3148 C.ar    1  UNL1        0.0982
     12 C          62.6983   87.6813   11.1403 C.ar    1  UNL1        0.0220
     13 C          62.9039   89.1653   11.0681 C.ar    1  UNL1        0.0231
     14 C          63.6315   89.8762   12.1705 C.ar    1  UNL1        0.1410
     15 C          64.1535   89.1030   13.3451 C.ar    1  UNL1        0.1187
     16 N          63.9478   87.6189   13.4172 N.ar    1  UNL1       -0.2409
     17 S          63.8371   91.3603   12.0983 S.O2    1  UNL1        0.0619
     18 O          63.8017   91.4381   13.5959 O.2     1  UNL1       -0.1529
     19 O          63.8725   91.2825   10.6007 O.2     1  UNL1       -0.1529
     20 N          64.0427   92.8444   12.0260 N.3     1  UNL1       -0.1723
     21 H          63.7589   93.2252   12.9287 H       1  UNL1        0.1491
     22 C          65.4046   93.3994   11.7307 C.3     1  UNL1        0.1701
     23 C          65.5572   94.5401   10.7687 C.3     1  UNL1        0.0278
     24 C          66.6139   92.8137   12.3973 C.3     1  UNL1        0.4118
     25 F          67.8233   92.2280   13.0641 F       1  UNL1       -0.1685
     26 F          66.2007   93.4395   13.6965 F       1  UNL1       -0.1685
     27 F          67.0270   92.1879   11.0982 F       1  UNL1       -0.1685
     28 C          62.7322   85.1691   15.0329 C.ar    1  UNL1        0.2369
     29 N          64.0009   85.4315   15.7889 N.ar    1  UNL1       -0.2095
     30 C          63.9429   85.9759   17.1854 C.ar    1  UNL1        0.1037
     31 C          62.6161   86.2579   17.8258 C.ar    1  UNL1        0.0415
     32 C          61.3475   85.9955   17.0698 C.ar    1  UNL1        0.1037
     33 N          61.4055   85.4511   15.6733 N.ar    1  UNL1       -0.2095
     34 C          60.6548   78.7978   14.2706 C.3     1  UNL1        0.0051
     35 C          62.0362   79.3746   14.1774 C.3     1  UNL1        0.0287
     36 C          63.1824   84.8513    9.7815 C.1     1  UNL1        0.1020
     37 N          63.3675   85.2241    8.3403 N.1     1  UNL1       -0.1908
@<TRIPOS>BOND
     1    34    35    1
     2    35     1    1
     3     1     2   ar
     4     2     3   ar
     5     3     4   ar
     6     4     5   ar
     7     5     6   ar
     8     6     7    1
     9     4     8   ar
    10     8    36    1
    11    36    37    3
    12     8     9   ar
    13     9    11    1
    14    11    12   ar
    15    12    13   ar
    16    13    14   ar
    17    14    17    1
    18    17    18    2
    19    17    19    2
    20    17    20    1
    21    20    22    1
    22    22    23    1
    23    22    24    1
    24    24    25    1
    25    24    26    1
    26    24    27    1
    27    14    15   ar
    28    15    16   ar
    29     9    10   ar
    30    10    28    1
    31    28    29   ar
    32    29    30   ar
    33    30    31   ar
    34    31    32   ar
    35    32    33   ar
    36     6     1   ar
    37    16    11   ar
    38    33    28   ar
    39    10     3   ar
    40    20    21    1
