@<TRIPOS>MOLECULE
*****
 44 47 0 0 0
SMALL
GASTEIGER

@<TRIPOS>ATOM
      1 C          62.4666   88.8228   11.4878 C.3     1  UNL1        0.1245
      2 C          63.9355   89.1140   13.6108 C.2     1  UNL1        0.2492
      3 O          64.6836   90.0012   14.5612 O.2     1  UNL1       -0.2699
      4 N          63.2147   89.7100   12.4382 N.am    1  UNL1       -0.2735
      5 C          63.0962   82.8271   12.8848 C.ar    1  UNL1        0.2924
      6 N          63.7012   83.1737   14.2129 N.ar    1  UNL1       -0.1946
      7 C          63.8537   84.6645   14.2779 C.ar    1  UNL1        0.1202
      8 C          64.3917   85.5728   15.3435 C.ar    1  UNL1        0.0225
      9 C          64.4189   87.0560   15.1211 C.ar    1  UNL1        0.0063
     10 C          63.9082   87.6308   13.8332 C.ar    1  UNL1        0.0567
     11 C          63.3702   86.7224   12.7676 C.ar    1  UNL1        0.0437
     12 C          63.3430   85.2393   12.9900 C.ar    1  UNL1        0.1662
     13 O          62.8748   84.1037   12.1290 O.2     1  UNL1       -0.4237
     14 N          62.7698   81.4463   12.3980 N.pl3   1  UNL1       -0.2619
     15 C          63.0759   81.0585   10.9817 C.3     1  UNL1        0.1166
     16 C          60.8922   80.8179   14.0801 C.3     1  UNL1        0.0233
     17 C          62.1374   80.4533   13.3275 C.3     1  UNL1        0.0952
     18 C          63.2419   91.1932   12.2158 C.3     1  UNL1        0.0937
     19 C          64.3109   91.8035   11.3586 C.3     1  UNL1        0.0183
     20 C          65.0984   92.1499   12.5873 C.3     1  UNL1        0.0017
     21 C          63.5233   91.4571   10.1299 C.3     1  UNL1        0.0017
     22 C          65.3798   92.4138   10.5013 C.3     1  UNL1        0.0017
     23 C          61.0962   89.2128   11.0186 C.3     1  UNL1        0.1484
     24 O          60.2416   90.1106   11.8633 O.3     1  UNL1       -0.3810
     25 H          60.7213   90.3456   12.6730 H       1  UNL1        0.2105
     26 C          60.5805   88.7050    9.7048 C.3     1  UNL1        0.1075
     27 N          60.4512   89.6391    8.5382 N.am    1  UNL1       -0.2695
     28 C          59.4084   89.3893    7.4894 C.2     1  UNL1        0.4020
     29 O          58.4948   88.2054    7.6071 O.2     1  UNL1       -0.2264
     30 H          61.0508   90.4161    8.4610 H       1  UNL1        0.1528
     31 O          59.2791   90.3234    6.3228 O.3     1  UNL1       -0.4291
     32 C          60.4257   90.4988    5.3718 C.3     1  UNL1        0.2447
     33 C          60.3745   91.5722    4.3253 C.ar    1  UNL1        0.0714
     34 C          59.2012   92.4581    4.0274 C.ar    1  UNL1        0.1053
     35 N          59.5892   93.3815    2.9109 N.ar    1  UNL1       -0.2350
     36 C          61.0023   93.0665    2.5187 C.ar    1  UNL1        0.1343
     37 S          61.4877   91.9482    3.3928 S.2     1  UNL1       -0.0652
     38 C          60.1941   87.2631    9.5575 C.3     1  UNL1        0.0485
     39 C          61.0379   86.3416    8.7276 C.ar    1  UNL1       -0.0204
     40 C          62.4393   86.0194    9.1546 C.ar    1  UNL1       -0.0042
     41 C          63.2831   85.0979    8.3247 C.ar    1  UNL1       -0.0003
     42 C          62.7256   84.4984    7.0679 C.ar    1  UNL1       -0.0000
     43 C          61.3242   84.8205    6.6409 C.ar    1  UNL1       -0.0003
     44 C          60.4804   85.7421    7.4708 C.ar    1  UNL1       -0.0042
@<TRIPOS>BOND
     1    16    17    1
     2    17    14    1
     3    14    15    1
     4    14     5    1
     5     5     6   ar
     6     6     7   ar
     7     7     8   ar
     8     8     9   ar
     9     9    10   ar
    10    10     2    1
    11     2     3    2
    12     2     4   am
    13     4     1    1
    14     1    23    1
    15    23    24    1
    16    23    26    1
    17    26    38    1
    18    38    39    1
    19    39    40   ar
    20    40    41   ar
    21    41    42   ar
    22    42    43   ar
    23    43    44   ar
    24    26    27    1
    25    27    28   am
    26    28    29    2
    27    28    31    1
    28    31    32    1
    29    32    33    1
    30    33    34   ar
    31    34    35   ar
    32    35    36   ar
    33    36    37   ar
    34     4    18    1
    35    18    19    1
    36    19    20    1
    37    19    21    1
    38    19    22    1
    39    10    11   ar
    40    11    12   ar
    41    12    13   ar
    42    13     5   ar
    43    12     7   ar
    44    44    39   ar
    45    37    33   ar
    46    24    25    1
    47    27    30    1
@<TRIPOS>MOLECULE
*****
 44 47 0 0 0
SMALL
GASTEIGER

@<TRIPOS>ATOM
      1 C          64.2376   87.7687   14.2347 C.3     1  UNL1        0.1245
      2 C          63.8145   90.0738   15.3561 C.2     1  UNL1        0.2492
      3 O          63.4581   90.8831   16.5677 O.2     1  UNL1       -0.2699
      4 N          63.8812   88.5781   15.4463 N.am    1  UNL1       -0.2735
      5 C          66.4540   93.6482   10.7721 C.ar    1  UNL1        0.2924
      6 N          65.2186   92.9382   10.3035 N.ar    1  UNL1       -0.1946
      7 C          64.6833   92.1333   11.4505 C.ar    1  UNL1        0.1202
      8 C          63.4891   91.2343   11.5749 C.ar    1  UNL1        0.0225
      9 C          63.1995   90.5478   12.8768 C.ar    1  UNL1        0.0063
     10 C          64.1041   90.7604   14.0542 C.ar    1  UNL1        0.0567
     11 C          65.2984   91.6593   13.9298 C.ar    1  UNL1        0.0437
     12 C          65.5880   92.3458   12.6280 C.ar    1  UNL1        0.1662
     13 O          66.6823   93.2821   12.2087 O.2     1  UNL1       -0.4237
     14 N          67.3108   94.5636    9.9486 N.pl3   1  UNL1       -0.2619
     15 C          67.0854   96.0458    9.9957 C.3     1  UNL1        0.1166
     16 C          68.7205   92.5346    9.1452 C.3     1  UNL1        0.0233
     17 C          68.3928   93.9968    9.0781 C.3     1  UNL1        0.0952
     18 C          63.5916   87.8915   16.7482 C.3     1  UNL1        0.0937
     19 C          62.3812   87.0155   16.8811 C.3     1  UNL1        0.0183
     20 C          61.5057   88.1632   16.4733 C.3     1  UNL1        0.0017
     21 C          63.2567   85.8678   17.2889 C.3     1  UNL1        0.0017
     22 C          61.1709   86.1394   17.0140 C.3     1  UNL1        0.0017
     23 C          64.6327   86.3294   14.3839 C.3     1  UNL1        0.1484
     24 O          65.7750   85.9543   15.2808 O.3     1  UNL1       -0.3810
     25 H          66.1451   86.7547   15.6849 H       1  UNL1        0.2105
     26 C          63.8856   85.2652   13.6360 C.3     1  UNL1        0.1075
     27 N          62.5942   85.5974   12.9491 N.am    1  UNL1       -0.2695
     28 C          62.4325   85.3242   11.4831 C.2     1  UNL1        0.4020
     29 O          63.5623   84.7187   10.7040 O.2     1  UNL1       -0.2264
     30 H          61.8526   85.9948   13.4605 H       1  UNL1        0.1528
     31 O          61.1411   85.6565   10.7962 O.3     1  UNL1       -0.4291
     32 C          61.0830   86.7906    9.8162 C.3     1  UNL1        0.2447
     33 C          60.5900   88.1372   10.2559 C.ar    1  UNL1        0.0714
     34 C          60.5322   89.3745    9.4098 C.ar    1  UNL1        0.1053
     35 N          59.9747   90.4850   10.2499 N.ar    1  UNL1       -0.2350
     36 C          59.6879   89.9342   11.6154 C.ar    1  UNL1        0.1343
     37 S          60.0682   88.4831   11.6191 S.2     1  UNL1       -0.0652
     38 C          64.4299   83.8687   13.5751 C.3     1  UNL1        0.0485
     39 C          63.4916   82.6990   13.5397 C.ar    1  UNL1       -0.0204
     40 C          62.3617   82.6138   14.5225 C.ar    1  UNL1       -0.0042
     41 C          61.4234   81.4440   14.4871 C.ar    1  UNL1       -0.0003
     42 C          61.6151   80.3594   13.4689 C.ar    1  UNL1       -0.0000
     43 C          62.7450   80.4446   12.4861 C.ar    1  UNL1       -0.0003
     44 C          63.6833   81.6143   12.5215 C.ar    1  UNL1       -0.0042
@<TRIPOS>BOND
     1    16    17    1
     2    17    14    1
     3    14    15    1
     4    14     5    1
     5     5     6   ar
     6     6     7   ar
     7     7     8   ar
     8     8     9   ar
     9     9    10   ar
    10    10     2    1
    11     2     3    2
    12     2     4   am
    13     4     1    1
    14     1    23    1
    15    23    24    1
    16    23    26    1
    17    26    38    1
    18    38    39    1
    19    39    40   ar
    20    40    41   ar
    21    41    42   ar
    22    42    43   ar
    23    43    44   ar
    24    26    27    1
    25    27    28   am
    26    28    29    2
    27    28    31    1
    28    31    32    1
    29    32    33    1
    30    33    34   ar
    31    34    35   ar
    32    35    36   ar
    33    36    37   ar
    34     4    18    1
    35    18    19    1
    36    19    20    1
    37    19    21    1
    38    19    22    1
    39    10    11   ar
    40    11    12   ar
    41    12    13   ar
    42    13     5   ar
    43    12     7   ar
    44    44    39   ar
    45    37    33   ar
    46    24    25    1
    47    27    30    1
@<TRIPOS>MOLECULE
*****
 44 47 0 0 0
SMALL
GASTEIGER

@<TRIPOS>ATOM
      1 C          63.7281   89.3111   12.4851 C.3     1  UNL1        0.1245
      2 C          64.0619   89.6125   15.0439 C.2     1  UNL1        0.2492
      3 O          64.3503   90.4961   16.2212 O.2     1  UNL1       -0.2699
      4 N          64.0166   90.1948   13.6623 N.am    1  UNL1       -0.2735
      5 C          63.5523   83.3090   14.1701 C.ar    1  UNL1        0.2924
      6 N          63.1781   83.7255   15.5616 N.ar    1  UNL1       -0.1946
      7 C          63.3324   85.2145   15.6571 C.ar    1  UNL1        0.1202
      8 C          63.1060   86.1768   16.7853 C.ar    1  UNL1        0.0225
      9 C          63.3491   87.6427   16.5809 C.ar    1  UNL1        0.0063
     10 C          63.8187   88.1464   15.2483 C.ar    1  UNL1        0.0567
     11 C          64.0452   87.1842   14.1201 C.ar    1  UNL1        0.0437
     12 C          63.8020   85.7183   14.3246 C.ar    1  UNL1        0.1662
     13 O          63.9379   84.5406   13.4055 O.2     1  UNL1       -0.4237
     14 N          63.5427   81.9070   13.6368 N.pl3   1  UNL1       -0.2619
     15 C          64.4508   81.5292   12.5043 C.3     1  UNL1        0.1166
     16 C          61.1401   81.0200   14.0732 C.3     1  UNL1        0.0233
     17 C          62.6250   80.8830   14.2359 C.3     1  UNL1        0.0952
     18 C          64.2597   91.6608   13.4580 C.3     1  UNL1        0.0937
     19 C          65.4614   92.1215   12.6874 C.3     1  UNL1        0.0183
     20 C          64.6498   92.1287   11.4260 C.3     1  UNL1        0.0017
     21 C          66.2730   92.1142   13.9489 C.3     1  UNL1        0.0017
     22 C          66.6631   92.5821   11.9169 C.3     1  UNL1        0.0017
     23 C          62.3237   89.1748   11.9759 C.3     1  UNL1        0.1484
     24 O          61.1808   89.7366   12.7684 O.3     1  UNL1       -0.3810
     25 H          61.5208   90.1514   13.5766 H       1  UNL1        0.2105
     26 C          62.0623   88.4766   10.6743 C.3     1  UNL1        0.1075
     27 N          61.4669   89.2330    9.5239 N.am    1  UNL1       -0.2695
     28 C          59.9971   89.5315    9.5030 C.2     1  UNL1        0.4020
     29 O          59.1226   89.0737   10.6325 O.2     1  UNL1       -0.2264
     30 H          62.0408   89.5335    8.7825 H       1  UNL1        0.1528
     31 O          59.4016   90.2879    8.3526 O.3     1  UNL1       -0.4291
     32 C          59.4917   89.7318    6.9624 C.3     1  UNL1        0.2447
     33 C          59.3339   90.6405    5.7795 C.ar    1  UNL1        0.0714
     34 C          58.0404   91.1936    5.2589 C.ar    1  UNL1        0.1053
     35 N          58.3489   92.0506    4.0671 N.ar    1  UNL1       -0.2350
     36 C          59.8331   92.0274    3.8512 C.ar    1  UNL1        0.1343
     37 S          60.4419   91.1558    4.9095 S.2     1  UNL1       -0.0652
     38 C          62.3964   87.0222   10.5230 C.3     1  UNL1        0.0485
     39 C          62.0576   86.3031    9.2509 C.ar    1  UNL1       -0.0204
     40 C          60.6507   86.3210    8.7312 C.ar    1  UNL1       -0.0042
     41 C          60.3119   85.6020    7.4591 C.ar    1  UNL1       -0.0003
     42 C          61.3801   84.8651    6.7067 C.ar    1  UNL1       -0.0000
     43 C          62.7870   84.8473    7.2265 C.ar    1  UNL1       -0.0003
     44 C          63.1258   85.5663    8.4986 C.ar    1  UNL1       -0.0042
@<TRIPOS>BOND
     1    16    17    1
     2    17    14    1
     3    14    15    1
     4    14     5    1
     5     5     6   ar
     6     6     7   ar
     7     7     8   ar
     8     8     9   ar
     9     9    10   ar
    10    10     2    1
    11     2     3    2
    12     2     4   am
    13     4     1    1
    14     1    23    1
    15    23    24    1
    16    23    26    1
    17    26    38    1
    18    38    39    1
    19    39    40   ar
    20    40    41   ar
    21    41    42   ar
    22    42    43   ar
    23    43    44   ar
    24    26    27    1
    25    27    28   am
    26    28    29    2
    27    28    31    1
    28    31    32    1
    29    32    33    1
    30    33    34   ar
    31    34    35   ar
    32    35    36   ar
    33    36    37   ar
    34     4    18    1
    35    18    19    1
    36    19    20    1
    37    19    21    1
    38    19    22    1
    39    10    11   ar
    40    11    12   ar
    41    12    13   ar
    42    13     5   ar
    43    12     7   ar
    44    44    39   ar
    45    37    33   ar
    46    24    25    1
    47    27    30    1
@<TRIPOS>MOLECULE
*****
 44 47 0 0 0
SMALL
GASTEIGER

@<TRIPOS>ATOM
      1 C          62.9574   86.9439   11.6740 C.3     1  UNL1        0.1245
      2 C          61.8424   88.7971   10.2344 C.2     1  UNL1        0.2492
      3 O          60.8340   89.2111    9.2041 O.2     1  UNL1       -0.2699
      4 N          61.9490   87.3580   10.6436 N.am    1  UNL1       -0.2735
      5 C          65.4162   92.1199   14.3507 C.ar    1  UNL1        0.2924
      6 N          65.4113   92.7261   12.9787 N.ar    1  UNL1       -0.1946
      7 C          64.5479   91.8725   12.0978 C.ar    1  UNL1        0.1202
      8 C          64.1748   91.9812   10.6491 C.ar    1  UNL1        0.0225
      9 C          63.2730   90.9560   10.0280 C.ar    1  UNL1        0.0063
     10 C          62.7443   89.8223   10.8556 C.ar    1  UNL1        0.0567
     11 C          63.1174   89.7136   12.3044 C.ar    1  UNL1        0.0437
     12 C          64.0191   90.7387   12.9255 C.ar    1  UNL1        0.1662
     13 O          64.5558   90.8917   14.3178 O.2     1  UNL1       -0.4237
     14 N          66.1523   92.6491   15.5458 N.pl3   1  UNL1       -0.2619
     15 C          65.5109   92.6065   16.9011 C.3     1  UNL1        0.1166
     16 C          68.7248   92.4368   15.8405 C.3     1  UNL1        0.0233
     17 C          67.5297   93.2209   15.3856 C.3     1  UNL1        0.0952
     18 C          61.0472   86.3328   10.0225 C.3     1  UNL1        0.0937
     19 C          61.2257   85.9506    8.5830 C.3     1  UNL1        0.0183
     20 C          59.7990   86.3229    8.3072 C.3     1  UNL1        0.0017
     21 C          62.6523   85.5783    8.8588 C.3     1  UNL1        0.0017
     22 C          61.4042   85.5684    7.1435 C.3     1  UNL1        0.0017
     23 C          62.8427   85.6047   12.3400 C.3     1  UNL1        0.1484
     24 O          61.7209   84.6787   11.9740 O.3     1  UNL1       -0.3810
     25 H          61.1649   85.0959   11.2974 H       1  UNL1        0.2105
     26 C          63.8498   85.1915   13.3720 C.3     1  UNL1        0.1075
     27 N          64.1615   83.7385   13.5762 N.am    1  UNL1       -0.2695
     28 C          63.1932   82.8599   14.3113 C.2     1  UNL1        0.4020
     29 O          61.9132   83.4342   14.8421 O.2     1  UNL1       -0.2264
     30 H          65.0016   83.3616   13.2279 H       1  UNL1        0.1528
     31 O          63.5048   81.4068   14.5155 O.3     1  UNL1       -0.4291
     32 C          62.7322   80.3616   13.7670 C.3     1  UNL1        0.2447
     33 C          62.8325   80.2815   12.2725 C.ar    1  UNL1        0.0714
     34 C          62.6325   79.0497   11.4401 C.ar    1  UNL1        0.1053
     35 N          62.8269   79.4260   10.0012 N.ar    1  UNL1       -0.2350
     36 C          63.1471   80.8903    9.9441 C.ar    1  UNL1        0.1343
     37 S          63.1506   81.4191   11.3479 S.2     1  UNL1       -0.0652
     38 C          64.5453   86.2313   14.1997 C.3     1  UNL1        0.0485
     39 C          63.9131   86.7281   15.4660 C.ar    1  UNL1       -0.0204
     40 C          63.7073   88.1991   15.6746 C.ar    1  UNL1       -0.0042
     41 C          63.0751   88.6959   16.9409 C.ar    1  UNL1       -0.0003
     42 C          62.6487   87.7216   17.9987 C.ar    1  UNL1       -0.0000
     43 C          62.8545   86.2505   17.7901 C.ar    1  UNL1       -0.0003
     44 C          63.4867   85.7538   16.5238 C.ar    1  UNL1       -0.0042
@<TRIPOS>BOND
     1    16    17    1
     2    17    14    1
     3    14    15    1
     4    14     5    1
     5     5     6   ar
     6     6     7   ar
     7     7     8   ar
     8     8     9   ar
     9     9    10   ar
    10    10     2    1
    11     2     3    2
    12     2     4   am
    13     4     1    1
    14     1    23    1
    15    23    24    1
    16    23    26    1
    17    26    38    1
    18    38    39    1
    19    39    40   ar
    20    40    41   ar
    21    41    42   ar
    22    42    43   ar
    23    43    44   ar
    24    26    27    1
    25    27    28   am
    26    28    29    2
    27    28    31    1
    28    31    32    1
    29    32    33    1
    30    33    34   ar
    31    34    35   ar
    32    35    36   ar
    33    36    37   ar
    34     4    18    1
    35    18    19    1
    36    19    20    1
    37    19    21    1
    38    19    22    1
    39    10    11   ar
    40    11    12   ar
    41    12    13   ar
    42    13     5   ar
    43    12     7   ar
    44    44    39   ar
    45    37    33   ar
    46    24    25    1
    47    27    30    1
@<TRIPOS>MOLECULE
*****
 44 47 0 0 0
SMALL
GASTEIGER

@<TRIPOS>ATOM
      1 C          62.9195   87.0454   11.7908 C.3     1  UNL1        0.1245
      2 C          61.7646   88.9111   10.3996 C.2     1  UNL1        0.2492
      3 O          60.7087   89.3389    9.4239 O.2     1  UNL1       -0.2699
      4 N          61.8636   87.4732   10.8151 N.am    1  UNL1       -0.2735
      5 C          65.7035   93.8866   11.0972 C.ar    1  UNL1        0.2924
      6 N          65.5772   93.0766   12.3534 N.ar    1  UNL1       -0.1946
      7 C          64.6356   91.9414   12.0803 C.ar    1  UNL1        0.1202
      8 C          64.1343   90.8230   12.9450 C.ar    1  UNL1        0.0225
      9 C          63.1773   89.8129   12.3848 C.ar    1  UNL1        0.0063
     10 C          62.7217   89.9212   10.9598 C.ar    1  UNL1        0.0567
     11 C          63.2230   91.0396   10.0950 C.ar    1  UNL1        0.0437
     12 C          64.1800   92.0496   10.6553 C.ar    1  UNL1        0.1662
     13 O          64.8399   93.2519   10.0477 O.2     1  UNL1       -0.4237
     14 N          66.5454   95.1155   10.9213 N.pl3   1  UNL1       -0.2619
     15 C          66.4452   96.2408   11.9080 C.3     1  UNL1        0.1166
     16 C          68.1441   93.9856    9.2133 C.3     1  UNL1        0.0233
     17 C          67.4876   95.2191    9.7588 C.3     1  UNL1        0.0952
     18 C          60.9065   86.4630   10.2549 C.3     1  UNL1        0.0937
     19 C          60.8643   86.2089    8.7772 C.3     1  UNL1        0.0183
     20 C          62.2895   85.7427    8.8166 C.3     1  UNL1        0.0017
     21 C          59.4391   86.6750    8.7377 C.3     1  UNL1        0.0017
     22 C          60.8221   85.9547    7.2994 C.3     1  UNL1        0.0017
     23 C          62.8976   85.6572   12.3588 C.3     1  UNL1        0.1484
     24 O          61.8788   84.6664   11.8789 O.3     1  UNL1       -0.3810
     25 H          61.3160   85.0813   11.2066 H       1  UNL1        0.2105
     26 C          63.8945   85.2599   13.4069 C.3     1  UNL1        0.1075
     27 N          64.2029   83.8101   13.6373 N.am    1  UNL1       -0.2695
     28 C          63.2029   82.9312   14.3283 C.2     1  UNL1        0.4020
     29 O          61.8944   83.5021   14.7888 O.2     1  UNL1       -0.2264
     30 H          65.0617   83.4355   13.3351 H       1  UNL1        0.1528
     31 O          63.5113   81.4814   14.5588 O.3     1  UNL1       -0.4291
     32 C          62.7500   80.4251   13.8141 C.3     1  UNL1        0.2447
     33 C          62.8567   80.3361   12.3206 C.ar    1  UNL1        0.0714
     34 C          62.6347   79.1051   11.4926 C.ar    1  UNL1        0.1053
     35 N          62.8450   79.4706   10.0531 N.ar    1  UNL1       -0.2350
     36 C          63.1970   80.9274    9.9913 C.ar    1  UNL1        0.1343
     37 S          63.2043   81.4623   11.3928 S.2     1  UNL1       -0.0652
     38 C          64.5830   86.3123   14.2244 C.3     1  UNL1        0.0485
     39 C          63.9373   86.8328   15.4742 C.ar    1  UNL1       -0.0204
     40 C          63.4799   85.8771   16.5360 C.ar    1  UNL1       -0.0042
     41 C          62.8342   86.3976   17.7859 C.ar    1  UNL1       -0.0003
     42 C          62.6460   87.8738   17.9740 C.ar    1  UNL1       -0.0000
     43 C          63.1034   88.8295   16.9122 C.ar    1  UNL1       -0.0003
     44 C          63.7490   88.3090   15.6623 C.ar    1  UNL1       -0.0042
@<TRIPOS>BOND
     1    16    17    1
     2    17    14    1
     3    14    15    1
     4    14     5    1
     5     5     6   ar
     6     6     7   ar
     7     7     8   ar
     8     8     9   ar
     9     9    10   ar
    10    10     2    1
    11     2     3    2
    12     2     4   am
    13     4     1    1
    14     1    23    1
    15    23    24    1
    16    23    26    1
    17    26    38    1
    18    38    39    1
    19    39    40   ar
    20    40    41   ar
    21    41    42   ar
    22    42    43   ar
    23    43    44   ar
    24    26    27    1
    25    27    28   am
    26    28    29    2
    27    28    31    1
    28    31    32    1
    29    32    33    1
    30    33    34   ar
    31    34    35   ar
    32    35    36   ar
    33    36    37   ar
    34     4    18    1
    35    18    19    1
    36    19    20    1
    37    19    21    1
    38    19    22    1
    39    10    11   ar
    40    11    12   ar
    41    12    13   ar
    42    13     5   ar
    43    12     7   ar
    44    44    39   ar
    45    37    33   ar
    46    24    25    1
    47    27    30    1
@<TRIPOS>MOLECULE
*****
 44 47 0 0 0
SMALL
GASTEIGER

@<TRIPOS>ATOM
      1 C          63.7130   89.5523   13.5246 C.3     1  UNL1        0.1245
      2 C          63.7121   89.2585   16.1060 C.2     1  UNL1        0.2492
      3 O          63.8461   89.8447   17.4802 O.2     1  UNL1       -0.2699
      4 N          63.8470   90.1385   14.8988 N.am    1  UNL1       -0.2735
      5 C          63.5573   83.2743   13.8875 C.ar    1  UNL1        0.2924
      6 N          62.8048   83.4261   15.1762 N.ar    1  UNL1       -0.1946
      7 C          62.9048   84.8600   15.6053 C.ar    1  UNL1        0.1202
      8 C          62.3596   85.5918   16.7957 C.ar    1  UNL1        0.0225
      9 C          62.6287   87.0579   16.9626 C.ar    1  UNL1        0.0063
     10 C          63.4430   87.7923   15.9391 C.ar    1  UNL1        0.0567
     11 C          63.9882   87.0605   14.7487 C.ar    1  UNL1        0.0437
     12 C          63.7191   85.5943   14.5818 C.ar    1  UNL1        0.1662
     13 O          64.1224   84.6143   13.5202 O.2     1  UNL1       -0.4237
     14 N          63.7167   82.0053   13.1039 N.pl3   1  UNL1       -0.2619
     15 C          63.0424   80.7480   13.5670 C.3     1  UNL1        0.1166
     16 C          64.0195   82.6034   10.5938 C.3     1  UNL1        0.0233
     17 C          64.5506   81.9935   11.8571 C.3     1  UNL1        0.0952
     18 C          64.1161   91.6048   15.0658 C.3     1  UNL1        0.0937
     19 C          65.4645   92.0720   15.5279 C.3     1  UNL1        0.0183
     20 C          64.8352   92.6864   16.7430 C.3     1  UNL1        0.0017
     21 C          66.0938   91.4576   14.3128 C.3     1  UNL1        0.0017
     22 C          66.8129   92.5392   15.9900 C.3     1  UNL1        0.0017
     23 C          62.4724   89.8039   12.7197 C.3     1  UNL1        0.1484
     24 O          61.1267   89.7532   13.3802 O.3     1  UNL1       -0.3810
     25 H          61.2362   89.5473   14.3217 H       1  UNL1        0.2105
     26 C          62.5778   90.1063   11.2543 C.3     1  UNL1        0.1075
     27 N          63.9096   90.4428   10.6517 N.am    1  UNL1       -0.2695
     28 C          64.5741   91.7465   10.9815 C.2     1  UNL1        0.4020
     29 O          63.9068   92.7137   11.9138 O.2     1  UNL1       -0.2264
     30 H          64.3476   89.8079   10.0398 H       1  UNL1        0.1528
     31 O          65.9060   92.0830   10.3790 O.3     1  UNL1       -0.4291
     32 C          66.7579   93.1540   10.9931 C.3     1  UNL1        0.2447
     33 C          66.8760   94.4926   10.3266 C.ar    1  UNL1        0.0714
     34 C          67.6682   94.7946    9.0891 C.ar    1  UNL1        0.1053
     35 N          67.5045   96.2528    8.7782 N.ar    1  UNL1       -0.2350
     36 C          66.6110   96.8522    9.8235 C.ar    1  UNL1        0.1343
     37 S          66.2226   95.7642   10.7804 S.2     1  UNL1       -0.0652
     38 C          61.3513   90.0721   10.3914 C.3     1  UNL1        0.0485
     39 C          60.9983   88.8234    9.6389 C.ar    1  UNL1       -0.0204
     40 C          61.6576   87.5232    9.9920 C.ar    1  UNL1       -0.0042
     41 C          61.3045   86.2746    9.2396 C.ar    1  UNL1       -0.0003
     42 C          60.2922   86.3261    8.1339 C.ar    1  UNL1       -0.0000
     43 C          59.6329   87.6263    7.7808 C.ar    1  UNL1       -0.0003
     44 C          59.9859   88.8750    8.5333 C.ar    1  UNL1       -0.0042
@<TRIPOS>BOND
     1    16    17    1
     2    17    14    1
     3    14    15    1
     4    14     5    1
     5     5     6   ar
     6     6     7   ar
     7     7     8   ar
     8     8     9   ar
     9     9    10   ar
    10    10     2    1
    11     2     3    2
    12     2     4   am
    13     4     1    1
    14     1    23    1
    15    23    24    1
    16    23    26    1
    17    26    38    1
    18    38    39    1
    19    39    40   ar
    20    40    41   ar
    21    41    42   ar
    22    42    43   ar
    23    43    44   ar
    24    26    27    1
    25    27    28   am
    26    28    29    2
    27    28    31    1
    28    31    32    1
    29    32    33    1
    30    33    34   ar
    31    34    35   ar
    32    35    36   ar
    33    36    37   ar
    34     4    18    1
    35    18    19    1
    36    19    20    1
    37    19    21    1
    38    19    22    1
    39    10    11   ar
    40    11    12   ar
    41    12    13   ar
    42    13     5   ar
    43    12     7   ar
    44    44    39   ar
    45    37    33   ar
    46    24    25    1
    47    27    30    1
@<TRIPOS>MOLECULE
*****
 44 47 0 0 0
SMALL
GASTEIGER

@<TRIPOS>ATOM
      1 C          63.9350   88.6953   13.0170 C.3     1  UNL1        0.1245
      2 C          63.9627   90.0759   15.2177 C.2     1  UNL1        0.2492
      3 O          63.5872   90.2255   16.6623 O.2     1  UNL1       -0.2699
      4 N          63.5596   88.8448   14.4616 N.am    1  UNL1       -0.2735
      5 C          66.2653   94.1442   10.8698 C.ar    1  UNL1        0.2924
      6 N          66.9086   94.3188   12.2136 N.ar    1  UNL1       -0.1946
      7 C          66.2985   93.3209   13.1528 C.ar    1  UNL1        0.1202
      8 C          66.5402   93.0306   14.6044 C.ar    1  UNL1        0.0225
      9 C          65.7616   91.9490   15.2927 C.ar    1  UNL1        0.0063
     10 C          64.7413   91.1576   14.5294 C.ar    1  UNL1        0.0567
     11 C          64.4995   91.4479   13.0777 C.ar    1  UNL1        0.0437
     12 C          65.2782   92.5296   12.3895 C.ar    1  UNL1        0.1662
     13 O          65.2577   93.0384   10.9785 O.2     1  UNL1       -0.4237
     14 N          66.5753   94.9363    9.6343 N.pl3   1  UNL1       -0.2619
     15 C          65.8982   96.2538    9.3986 C.3     1  UNL1        0.1166
     16 C          68.2497   93.0998    8.8769 C.3     1  UNL1        0.0233
     17 C          67.5624   94.4109    8.6346 C.3     1  UNL1        0.0952
     18 C          62.7809   87.7631   15.1499 C.3     1  UNL1        0.0937
     19 C          63.5014   86.6762   15.8912 C.3     1  UNL1        0.0183
     20 C          64.2426   86.3133   14.6386 C.3     1  UNL1        0.0017
     21 C          62.7603   87.0391   17.1438 C.3     1  UNL1        0.0017
     22 C          64.2219   85.5892   16.6324 C.3     1  UNL1        0.0017
     23 C          62.8900   88.8439   11.9512 C.3     1  UNL1        0.1484
     24 O          62.8266   90.0994   11.1329 O.3     1  UNL1       -0.3810
     25 H          63.5263   90.7073   11.4187 H       1  UNL1        0.2105
     26 C          61.9084   87.7370   11.7038 C.3     1  UNL1        0.1075
     27 N          62.3459   86.3068   11.8195 N.am    1  UNL1       -0.2695
     28 C          62.7320   85.5388   10.5902 C.2     1  UNL1        0.4020
     29 O          62.6805   86.2009    9.2453 O.2     1  UNL1       -0.2264
     30 H          62.3797   85.8723   12.7023 H       1  UNL1        0.1528
     31 O          63.1695   84.1087   10.7059 O.3     1  UNL1       -0.4291
     32 C          63.8028   83.6184   11.9742 C.3     1  UNL1        0.2447
     33 C          63.1251   82.5570   12.7892 C.ar    1  UNL1        0.0714
     34 C          62.5315   82.7386   14.1548 C.ar    1  UNL1        0.1053
     35 N          61.9616   81.4216   14.5914 N.ar    1  UNL1       -0.2350
     36 C          62.2030   80.4259   13.4956 C.ar    1  UNL1        0.1343
     37 S          62.9221   81.1277   12.3818 S.2     1  UNL1       -0.0652
     38 C          60.4894   88.0602   11.3408 C.3     1  UNL1        0.0485
     39 C          60.0780   88.1155    9.8993 C.ar    1  UNL1       -0.0204
     40 C          60.2207   89.3934    9.1271 C.ar    1  UNL1       -0.0042
     41 C          59.8093   89.4487    7.6857 C.ar    1  UNL1       -0.0003
     42 C          59.2552   88.2261    7.0165 C.ar    1  UNL1       -0.0000
     43 C          59.1124   86.9481    7.7887 C.ar    1  UNL1       -0.0003
     44 C          59.5238   86.8928    9.2301 C.ar    1  UNL1       -0.0042
@<TRIPOS>BOND
     1    16    17    1
     2    17    14    1
     3    14    15    1
     4    14     5    1
     5     5     6   ar
     6     6     7   ar
     7     7     8   ar
     8     8     9   ar
     9     9    10   ar
    10    10     2    1
    11     2     3    2
    12     2     4   am
    13     4     1    1
    14     1    23    1
    15    23    24    1
    16    23    26    1
    17    26    38    1
    18    38    39    1
    19    39    40   ar
    20    40    41   ar
    21    41    42   ar
    22    42    43   ar
    23    43    44   ar
    24    26    27    1
    25    27    28   am
    26    28    29    2
    27    28    31    1
    28    31    32    1
    29    32    33    1
    30    33    34   ar
    31    34    35   ar
    32    35    36   ar
    33    36    37   ar
    34     4    18    1
    35    18    19    1
    36    19    20    1
    37    19    21    1
    38    19    22    1
    39    10    11   ar
    40    11    12   ar
    41    12    13   ar
    42    13     5   ar
    43    12     7   ar
    44    44    39   ar
    45    37    33   ar
    46    24    25    1
    47    27    30    1
@<TRIPOS>MOLECULE
*****
 44 47 0 0 0
SMALL
GASTEIGER

@<TRIPOS>ATOM
      1 C          63.5278   88.7127   13.1191 C.3     1  UNL1        0.1245
      2 C          63.7401   87.9532   15.5946 C.2     1  UNL1        0.2492
      3 O          63.7710   88.2849   17.0571 O.2     1  UNL1       -0.2699
      4 N          63.5588   89.0445   14.5816 N.am    1  UNL1       -0.2735
      5 C          62.5766   81.8976   13.9410 C.ar    1  UNL1        0.2924
      6 N          64.0312   82.2493   13.8377 N.ar    1  UNL1       -0.1946
      7 C          64.1914   83.6838   14.2460 C.ar    1  UNL1        0.1202
      8 C          65.3965   84.5720   14.3399 C.ar    1  UNL1        0.0225
      9 C          65.2460   85.9951   14.7894 C.ar    1  UNL1        0.0063
     10 C          63.8905   86.5300   15.1450 C.ar    1  UNL1        0.0567
     11 C          62.6854   85.6418   15.0512 C.ar    1  UNL1        0.0437
     12 C          62.8359   84.2187   14.6017 C.ar    1  UNL1        0.1662
     13 O          61.8379   83.1148   14.4132 O.2     1  UNL1       -0.4237
     14 N          61.9677   80.5632   13.6273 N.pl3   1  UNL1       -0.2619
     15 C          62.4997   79.7453   12.4880 C.3     1  UNL1        0.1166
     16 C          59.4154   80.3929   14.0817 C.3     1  UNL1        0.0233
     17 C          60.8269   80.0466   14.4529 C.3     1  UNL1        0.0952
     18 C          63.4083   90.4676   15.0312 C.3     1  UNL1        0.0937
     19 C          64.6231   91.2785   15.3730 C.3     1  UNL1        0.0183
     20 C          63.9877   91.6836   16.6700 C.3     1  UNL1        0.0017
     21 C          65.2585   90.8735   14.0760 C.3     1  UNL1        0.0017
     22 C          65.8378   92.0894   15.7149 C.3     1  UNL1        0.0017
     23 C          62.3834   89.1784   12.2684 C.3     1  UNL1        0.1484
     24 O          61.1200   89.6667   12.9129 O.3     1  UNL1       -0.3810
     25 H          61.2086   89.6159   13.8775 H       1  UNL1        0.2105
     26 C          62.5026   89.1559   10.7733 C.3     1  UNL1        0.1075
     27 N          63.3634   90.1660   10.0742 N.am    1  UNL1       -0.2695
     28 C          63.6335   91.4942   10.7167 C.2     1  UNL1        0.4020
     29 O          63.0428   91.8124   12.0582 O.2     1  UNL1       -0.2264
     30 H          63.7512   89.9571    9.1937 H       1  UNL1        0.1528
     31 O          64.4944   92.5043   10.0176 O.3     1  UNL1       -0.4291
     32 C          65.7319   93.0258   10.6857 C.3     1  UNL1        0.2447
     33 C          66.2686   94.3779   10.3200 C.ar    1  UNL1        0.0714
     34 C          66.0647   95.6464   11.0944 C.ar    1  UNL1        0.1053
     35 N          66.7734   96.7515   10.3688 N.ar    1  UNL1       -0.2350
     36 C          67.4153   96.1661    9.1460 C.ar    1  UNL1        0.1343
     37 S          67.1033   94.6991    9.1158 S.2     1  UNL1       -0.0652
     38 C          61.7609   88.1233    9.9774 C.3     1  UNL1        0.0485
     39 C          62.2808   86.7183    9.9022 C.ar    1  UNL1       -0.0204
     40 C          62.7447   86.1594    8.5898 C.ar    1  UNL1       -0.0042
     41 C          63.2646   84.7544    8.5147 C.ar    1  UNL1       -0.0003
     42 C          63.3207   83.9083    9.7519 C.ar    1  UNL1       -0.0000
     43 C          62.8568   84.4671   11.0643 C.ar    1  UNL1       -0.0003
     44 C          62.3369   85.8721   11.1395 C.ar    1  UNL1       -0.0042
@<TRIPOS>BOND
     1    16    17    1
     2    17    14    1
     3    14    15    1
     4    14     5    1
     5     5     6   ar
     6     6     7   ar
     7     7     8   ar
     8     8     9   ar
     9     9    10   ar
    10    10     2    1
    11     2     3    2
    12     2     4   am
    13     4     1    1
    14     1    23    1
    15    23    24    1
    16    23    26    1
    17    26    38    1
    18    38    39    1
    19    39    40   ar
    20    40    41   ar
    21    41    42   ar
    22    42    43   ar
    23    43    44   ar
    24    26    27    1
    25    27    28   am
    26    28    29    2
    27    28    31    1
    28    31    32    1
    29    32    33    1
    30    33    34   ar
    31    34    35   ar
    32    35    36   ar
    33    36    37   ar
    34     4    18    1
    35    18    19    1
    36    19    20    1
    37    19    21    1
    38    19    22    1
    39    10    11   ar
    40    11    12   ar
    41    12    13   ar
    42    13     5   ar
    43    12     7   ar
    44    44    39   ar
    45    37    33   ar
    46    24    25    1
    47    27    30    1
@<TRIPOS>MOLECULE
*****
 44 47 0 0 0
SMALL
GASTEIGER

@<TRIPOS>ATOM
      1 C          63.7053   89.0289   13.0039 C.3     1  UNL1        0.1245
      2 C          64.0807   90.3078   15.2340 C.2     1  UNL1        0.2492
      3 O          63.8903   90.4149   16.7180 O.2     1  UNL1       -0.2699
      4 N          63.5149   89.1360   14.4879 N.am    1  UNL1       -0.2735
      5 C          66.3586   94.1655   10.6859 C.ar    1  UNL1        0.2924
      6 N          66.9489   94.4591   12.0332 N.ar    1  UNL1       -0.1946
      7 C          66.3492   93.5022   13.0205 C.ar    1  UNL1        0.1202
      8 C          66.5540   93.3223   14.4955 C.ar    1  UNL1        0.0225
      9 C          65.7979   92.2575   15.2333 C.ar    1  UNL1        0.0063
     10 C          64.8369   91.3726   14.4961 C.ar    1  UNL1        0.0567
     11 C          64.6321   91.5525   13.0211 C.ar    1  UNL1        0.0437
     12 C          65.3883   92.6172   12.2833 C.ar    1  UNL1        0.1662
     13 O          65.3941   93.0272   10.8405 O.2     1  UNL1       -0.4237
     14 N          66.6770   94.8842    9.4083 N.pl3   1  UNL1       -0.2619
     15 C          65.9861   96.1748    9.0815 C.3     1  UNL1        0.1166
     16 C          68.3465   93.0006    8.7641 C.3     1  UNL1        0.0233
     17 C          67.6862   94.3121    8.4574 C.3     1  UNL1        0.0952
     18 C          62.7587   88.0712   15.2258 C.3     1  UNL1        0.0937
     19 C          63.4995   86.9472   15.8875 C.3     1  UNL1        0.0183
     20 C          64.3108   86.7484   14.6416 C.3     1  UNL1        0.0017
     21 C          62.6882   87.1459   17.1334 C.3     1  UNL1        0.0017
     22 C          64.2403   85.8232   16.5492 C.3     1  UNL1        0.0017
     23 C          62.5289   89.1733   12.0845 C.3     1  UNL1        0.1484
     24 O          61.7441   90.4515   12.0656 O.3     1  UNL1       -0.3810
     25 H          62.1270   91.0753   12.7022 H       1  UNL1        0.2105
     26 C          62.1372   88.0394   11.1840 C.3     1  UNL1        0.1075
     27 N          62.0059   88.2657    9.7069 N.am    1  UNL1       -0.2695
     28 C          60.7544   88.8768    9.1501 C.2     1  UNL1        0.4020
     29 O          59.6340   89.2617   10.0703 O.2     1  UNL1       -0.2264
     30 H          62.7412   88.0131    9.1029 H       1  UNL1        0.1528
     31 O          60.6230   89.1031    7.6730 O.3     1  UNL1       -0.4291
     32 C          59.2637   89.2261    7.0511 C.3     1  UNL1        0.2447
     33 C          59.0024   90.2868    6.0233 C.ar    1  UNL1        0.0714
     34 C          57.6557   90.8060    5.6146 C.ar    1  UNL1        0.1053
     35 N          57.8629   91.8548    4.5624 N.ar    1  UNL1       -0.2350
     36 C          59.3377   91.9838    4.3206 C.ar    1  UNL1        0.1343
     37 S          60.0419   91.0148    5.2235 S.2     1  UNL1       -0.0652
     38 C          61.8769   86.6794   11.7604 C.3     1  UNL1        0.0485
     39 C          62.6212   85.4874   11.2359 C.ar    1  UNL1       -0.0204
     40 C          63.2511   84.5168   12.1904 C.ar    1  UNL1       -0.0042
     41 C          63.9954   83.3249   11.6658 C.ar    1  UNL1       -0.0003
     42 C          64.1098   83.1034   10.1867 C.ar    1  UNL1       -0.0000
     43 C          63.4799   84.0740    9.2322 C.ar    1  UNL1       -0.0003
     44 C          62.7356   85.2659    9.7568 C.ar    1  UNL1       -0.0042
@<TRIPOS>BOND
     1    16    17    1
     2    17    14    1
     3    14    15    1
     4    14     5    1
     5     5     6   ar
     6     6     7   ar
     7     7     8   ar
     8     8     9   ar
     9     9    10   ar
    10    10     2    1
    11     2     3    2
    12     2     4   am
    13     4     1    1
    14     1    23    1
    15    23    24    1
    16    23    26    1
    17    26    38    1
    18    38    39    1
    19    39    40   ar
    20    40    41   ar
    21    41    42   ar
    22    42    43   ar
    23    43    44   ar
    24    26    27    1
    25    27    28   am
    26    28    29    2
    27    28    31    1
    28    31    32    1
    29    32    33    1
    30    33    34   ar
    31    34    35   ar
    32    35    36   ar
    33    36    37   ar
    34     4    18    1
    35    18    19    1
    36    19    20    1
    37    19    21    1
    38    19    22    1
    39    10    11   ar
    40    11    12   ar
    41    12    13   ar
    42    13     5   ar
    43    12     7   ar
    44    44    39   ar
    45    37    33   ar
    46    24    25    1
    47    27    30    1
