@<TRIPOS>MOLECULE
*****
 27 29 0 0 0
SMALL
GASTEIGER

@<TRIPOS>ATOM
      1 C          63.5501   88.1187   13.0032 C.3     1  UNL1        0.0518
      2 C          62.9349   89.0303   11.9831 C.ar    1  UNL1        0.0612
      3 C          63.2916   90.4698   11.7580 C.ar    1  UNL1        0.1481
      4 N          62.4322   90.9916   10.6447 N.ar    1  UNL1       -0.2196
      5 C          61.5444   89.8746   10.1819 C.ar    1  UNL1        0.1787
      6 N          61.8551   88.6625   11.0090 N.ar    1  UNL1       -0.3082
      7 C          64.3260   91.2504   12.5133 C.2     1  UNL1        0.2695
      8 O          64.8445   92.5431   11.9567 O.2     1  UNL1       -0.2681
      9 N          64.8419   90.7382   13.8254 N.am    1  UNL1       -0.2631
     10 H          64.5016   89.8897   14.1908 H       1  UNL1        0.1567
     11 C          65.8763   91.5188   14.5808 C.ar    1  UNL1        0.1557
     12 C          65.6409   92.3176   15.8284 C.ar    1  UNL1        0.0564
     13 C          66.9469   92.9301   16.2399 C.ar    1  UNL1        0.0981
     14 N          67.9893   92.5100   15.2466 N.ar    1  UNL1       -0.2462
     15 C          69.4390   92.8946   15.2738 C.3     1  UNL1        0.1538
     16 N          67.3277   91.6377   14.2212 N.ar    1  UNL1       -0.1539
     17 C          61.2009   87.3185   10.8841 C.3     1  UNL1        0.1340
     18 C          62.0106   86.1259   10.4691 C.ar    1  UNL1        0.0004
     19 C          62.4479   85.9759    9.0422 C.ar    1  UNL1       -0.0024
     20 C          63.2575   84.7833    8.6273 C.ar    1  UNL1       -0.0003
     21 C          63.6298   83.7407    9.6393 C.ar    1  UNL1        0.0038
     22 C          63.1925   83.8906   11.0663 C.ar    1  UNL1        0.0712
     23 C          62.3829   85.0832   11.4812 C.ar    1  UNL1        0.0015
     24 C          63.5648   82.8479   12.0783 C.3     1  UNL1        0.4186
     25 F          63.9371   81.8053   13.0904 F       1  UNL1       -0.1659
     26 F          64.6892   83.7164   12.5595 F       1  UNL1       -0.1659
     27 F          62.4404   81.9794   11.5972 F       1  UNL1       -0.1659
@<TRIPOS>BOND
     1     1     2    1
     2     2     3   ar
     3     3     7    1
     4     7     8    2
     5     7     9   am
     6     9    11    1
     7    11    12   ar
     8    12    13   ar
     9    13    14   ar
    10    14    15    1
    11    14    16   ar
    12     3     4   ar
    13     4     5   ar
    14     5     6   ar
    15     6    17    1
    16    17    18    1
    17    18    19   ar
    18    19    20   ar
    19    20    21   ar
    20    21    22   ar
    21    22    24    1
    22    24    25    1
    23    24    26    1
    24    24    27    1
    25    22    23   ar
    26     6     2   ar
    27    23    18   ar
    28    16    11   ar
    29     9    10    1
@<TRIPOS>MOLECULE
*****
 27 29 0 0 0
SMALL
GASTEIGER

@<TRIPOS>ATOM
      1 C          63.4162   88.2379   12.8253 C.3     1  UNL1        0.0518
      2 C          62.5952   88.7082   11.6614 C.ar    1  UNL1        0.0612
      3 C          62.6337   90.0781   11.0516 C.ar    1  UNL1        0.1481
      4 N          61.6538   90.1077    9.9163 N.ar    1  UNL1       -0.2196
      5 C          61.0097   88.7561    9.8245 C.ar    1  UNL1        0.1787
      6 N          61.5915   87.8912   10.9031 N.ar    1  UNL1       -0.3082
      7 C          63.5000   91.2181   11.4985 C.2     1  UNL1        0.2695
      8 O          63.6213   91.5404   12.9584 O.2     1  UNL1       -0.2681
      9 N          64.2451   92.0359   10.4855 N.am    1  UNL1       -0.2631
     10 H          64.1655   91.8244    9.5273 H       1  UNL1        0.1567
     11 C          65.1113   93.1760   10.9325 C.ar    1  UNL1        0.1557
     12 C          65.8971   93.2385   12.2086 C.ar    1  UNL1        0.0564
     13 C          66.6154   94.5549   12.2466 C.ar    1  UNL1        0.0981
     14 N          66.2735   95.3058   10.9939 N.ar    1  UNL1       -0.2462
     15 C          66.7733   96.6696   10.6192 C.3     1  UNL1        0.1538
     16 N          65.3439   94.4536   10.1817 N.ar    1  UNL1       -0.1539
     17 C          61.2326   86.4605   11.1754 C.3     1  UNL1        0.1340
     18 C          62.1737   85.3623   10.7773 C.ar    1  UNL1        0.0004
     19 C          62.7440   85.3294    9.3904 C.ar    1  UNL1       -0.0024
     20 C          63.6850   84.2313    8.9923 C.ar    1  UNL1       -0.0003
     21 C          64.0557   83.1660    9.9811 C.ar    1  UNL1        0.0038
     22 C          63.4854   83.1989   11.3680 C.ar    1  UNL1        0.0712
     23 C          62.5444   84.2970   11.7661 C.ar    1  UNL1        0.0015
     24 C          63.8561   82.1336   12.3569 C.3     1  UNL1        0.4186
     25 F          64.2268   81.0684   13.3457 F       1  UNL1       -0.1659
     26 F          64.6244   83.1435   13.1568 F       1  UNL1       -0.1659
     27 F          63.0878   81.1237   11.5570 F       1  UNL1       -0.1659
@<TRIPOS>BOND
     1     1     2    1
     2     2     3   ar
     3     3     7    1
     4     7     8    2
     5     7     9   am
     6     9    11    1
     7    11    12   ar
     8    12    13   ar
     9    13    14   ar
    10    14    15    1
    11    14    16   ar
    12     3     4   ar
    13     4     5   ar
    14     5     6   ar
    15     6    17    1
    16    17    18    1
    17    18    19   ar
    18    19    20   ar
    19    20    21   ar
    20    21    22   ar
    21    22    24    1
    22    24    25    1
    23    24    26    1
    24    24    27    1
    25    22    23   ar
    26     6     2   ar
    27    23    18   ar
    28    16    11   ar
    29     9    10    1
@<TRIPOS>MOLECULE
*****
 27 29 0 0 0
SMALL
GASTEIGER

@<TRIPOS>ATOM
      1 C          63.7885   88.5123   13.4133 C.3     1  UNL1        0.0518
      2 C          63.0390   88.9730   12.1984 C.ar    1  UNL1        0.0612
      3 C          62.2952   88.0954   11.2359 C.ar    1  UNL1        0.1481
      4 N          61.6983   88.9723   10.1753 N.ar    1  UNL1       -0.2196
      5 C          62.0733   90.3918   10.4822 C.ar    1  UNL1        0.1787
      6 N          62.9020   90.3923   11.7326 N.ar    1  UNL1       -0.3082
      7 C          62.1700   86.6030   11.3194 C.2     1  UNL1        0.2695
      8 O          61.1914   85.8820   10.4406 O.2     1  UNL1       -0.2681
      9 N          63.0236   85.8314   12.2818 N.am    1  UNL1       -0.2631
     10 H          63.6660   86.3046   12.8587 H       1  UNL1        0.1567
     11 C          62.8985   84.3390   12.3653 C.ar    1  UNL1        0.1557
     12 C          63.2787   83.3611   11.2934 C.ar    1  UNL1        0.0564
     13 C          62.9864   81.9802   11.8010 C.ar    1  UNL1        0.0981
     14 N          62.4256   82.1047   13.1866 N.ar    1  UNL1       -0.2462
     15 C          61.9947   80.9705   14.0687 C.3     1  UNL1        0.1538
     16 N          62.3713   83.5626   13.5354 N.ar    1  UNL1       -0.1539
     17 C          63.4902   91.6000   12.3999 C.3     1  UNL1        0.1340
     18 C          64.9663   91.8554   12.3223 C.ar    1  UNL1        0.0004
     19 C          65.8138   91.7367   13.5543 C.ar    1  UNL1       -0.0024
     20 C          67.2898   91.9921   13.4766 C.ar    1  UNL1       -0.0003
     21 C          67.9184   92.3663   12.1671 C.ar    1  UNL1        0.0038
     22 C          67.0709   92.4850   10.9352 C.ar    1  UNL1        0.0712
     23 C          65.5949   92.2296   11.0128 C.ar    1  UNL1        0.0015
     24 C          67.6995   92.8592    9.6256 C.3     1  UNL1        0.4186
     25 F          68.3280   93.2334    8.3161 F       1  UNL1       -0.1659
     26 F          67.3623   94.2993    9.8753 F       1  UNL1       -0.1659
     27 F          68.0367   91.4191    9.3760 F       1  UNL1       -0.1659
@<TRIPOS>BOND
     1     1     2    1
     2     2     3   ar
     3     3     7    1
     4     7     8    2
     5     7     9   am
     6     9    11    1
     7    11    12   ar
     8    12    13   ar
     9    13    14   ar
    10    14    15    1
    11    14    16   ar
    12     3     4   ar
    13     4     5   ar
    14     5     6   ar
    15     6    17    1
    16    17    18    1
    17    18    19   ar
    18    19    20   ar
    19    20    21   ar
    20    21    22   ar
    21    22    24    1
    22    24    25    1
    23    24    26    1
    24    24    27    1
    25    22    23   ar
    26     6     2   ar
    27    23    18   ar
    28    16    11   ar
    29     9    10    1
@<TRIPOS>MOLECULE
*****
 27 29 0 0 0
SMALL
GASTEIGER

@<TRIPOS>ATOM
      1 C          66.0206   90.7209   14.9488 C.3     1  UNL1        0.0518
      2 C          65.0370   90.8276   13.8215 C.ar    1  UNL1        0.0612
      3 C          64.0567   89.7719   13.4037 C.ar    1  UNL1        0.1481
      4 N          63.2748   90.3007   12.2380 N.ar    1  UNL1       -0.2196
      5 C          63.7718   91.6832   11.9352 C.ar    1  UNL1        0.1787
      6 N          64.8609   92.0089   12.9139 N.ar    1  UNL1       -0.3082
      7 C          63.8880   88.4241   14.0400 C.2     1  UNL1        0.2695
      8 O          63.7174   88.3123   15.5260 O.2     1  UNL1       -0.2681
      9 N          63.8898   87.1880   13.1902 N.am    1  UNL1       -0.2631
     10 H          64.0018   87.2614   12.2149 H       1  UNL1        0.1567
     11 C          63.7211   85.8402   13.8265 C.ar    1  UNL1        0.1557
     12 C          64.6322   85.2274   14.8485 C.ar    1  UNL1        0.0564
     13 C          64.0858   83.8770   15.2061 C.ar    1  UNL1        0.0981
     14 N          62.8371   83.6552   14.4052 N.ar    1  UNL1       -0.2462
     15 C          61.9666   82.4344   14.4492 C.3     1  UNL1        0.1538
     16 N          62.6117   84.8685   13.5525 N.ar    1  UNL1       -0.1539
     17 C          65.6375   93.2907   12.9743 C.3     1  UNL1        0.1340
     18 C          66.2680   93.8450   11.7312 C.ar    1  UNL1        0.0004
     19 C          66.0694   95.2868   11.3684 C.ar    1  UNL1       -0.0024
     20 C          66.6999   95.8411   10.1253 C.ar    1  UNL1       -0.0003
     21 C          67.5290   94.9535    9.2451 C.ar    1  UNL1        0.0038
     22 C          67.7276   93.5117    9.6079 C.ar    1  UNL1        0.0712
     23 C          67.0971   92.9574   10.8510 C.ar    1  UNL1        0.0015
     24 C          68.5566   92.6241    8.7276 C.3     1  UNL1        0.4186
     25 F          69.3857   91.7365    7.8474 F       1  UNL1       -0.1659
     26 F          68.3448   93.5653    7.5791 F       1  UNL1       -0.1659
     27 F          68.7684   91.6828    9.8762 F       1  UNL1       -0.1659
@<TRIPOS>BOND
     1     1     2    1
     2     2     3   ar
     3     3     7    1
     4     7     8    2
     5     7     9   am
     6     9    11    1
     7    11    12   ar
     8    12    13   ar
     9    13    14   ar
    10    14    15    1
    11    14    16   ar
    12     3     4   ar
    13     4     5   ar
    14     5     6   ar
    15     6    17    1
    16    17    18    1
    17    18    19   ar
    18    19    20   ar
    19    20    21   ar
    20    21    22   ar
    21    22    24    1
    22    24    25    1
    23    24    26    1
    24    24    27    1
    25    22    23   ar
    26     6     2   ar
    27    23    18   ar
    28    16    11   ar
    29     9    10    1
@<TRIPOS>MOLECULE
*****
 27 29 0 0 0
SMALL
GASTEIGER

@<TRIPOS>ATOM
      1 C          63.6935   88.3226   13.3028 C.3     1  UNL1        0.0518
      2 C          62.9269   88.7674   12.0927 C.ar    1  UNL1        0.0612
      3 C          62.2640   87.8700   11.0901 C.ar    1  UNL1        0.1481
      4 N          61.6159   88.7356   10.0504 N.ar    1  UNL1       -0.2196
      5 C          61.8783   90.1679   10.4105 C.ar    1  UNL1        0.1787
      6 N          62.6885   90.1875   11.6727 N.ar    1  UNL1       -0.3082
      7 C          62.2513   86.3704   11.1215 C.2     1  UNL1        0.2695
      8 O          61.5654   85.6031   10.0304 O.2     1  UNL1       -0.2681
      9 N          62.9246   85.6381   12.2442 N.am    1  UNL1       -0.2631
     10 H          63.3748   86.1417   12.9604 H       1  UNL1        0.1567
     11 C          62.9119   84.1385   12.2757 C.ar    1  UNL1        0.1557
     12 C          63.3690   83.2296   11.1735 C.ar    1  UNL1        0.0564
     13 C          63.1796   81.8139   11.6315 C.ar    1  UNL1        0.0981
     14 N          62.6054   81.8478   13.0168 N.ar    1  UNL1       -0.2462
     15 C          62.2576   80.6545   13.8566 C.3     1  UNL1        0.1538
     16 N          62.4400   83.2845   13.4150 N.ar    1  UNL1       -0.1539
     17 C          63.1750   91.4123   12.3891 C.3     1  UNL1        0.1340
     18 C          64.6322   91.7672   12.3631 C.ar    1  UNL1        0.0004
     19 C          65.2763   92.1988   11.0791 C.ar    1  UNL1       -0.0024
     20 C          66.7334   92.5537   11.0532 C.ar    1  UNL1       -0.0003
     21 C          67.5465   92.4770   12.3114 C.ar    1  UNL1        0.0038
     22 C          66.9024   92.0455   13.5954 C.ar    1  UNL1        0.0712
     23 C          65.4453   91.6906   13.6213 C.ar    1  UNL1        0.0015
     24 C          67.7155   91.9688   14.8536 C.3     1  UNL1        0.4186
     25 F          68.5286   91.8921   16.1118 F       1  UNL1       -0.1659
     26 F          68.9751   92.0769   14.0463 F       1  UNL1       -0.1659
     27 F          66.4560   91.8607   15.6610 F       1  UNL1       -0.1659
@<TRIPOS>BOND
     1     1     2    1
     2     2     3   ar
     3     3     7    1
     4     7     8    2
     5     7     9   am
     6     9    11    1
     7    11    12   ar
     8    12    13   ar
     9    13    14   ar
    10    14    15    1
    11    14    16   ar
    12     3     4   ar
    13     4     5   ar
    14     5     6   ar
    15     6    17    1
    16    17    18    1
    17    18    19   ar
    18    19    20   ar
    19    20    21   ar
    20    21    22   ar
    21    22    24    1
    22    24    25    1
    23    24    26    1
    24    24    27    1
    25    22    23   ar
    26     6     2   ar
    27    23    18   ar
    28    16    11   ar
    29     9    10    1
@<TRIPOS>MOLECULE
*****
 27 29 0 0 0
SMALL
GASTEIGER

@<TRIPOS>ATOM
      1 C          63.6269   88.4242   13.2338 C.3     1  UNL1        0.0518
      2 C          63.1024   89.2873   12.1248 C.ar    1  UNL1        0.0612
      3 C          63.5549   90.6806   11.8026 C.ar    1  UNL1        0.1481
      4 N          62.7654   91.1630   10.6219 N.ar    1  UNL1       -0.2196
      5 C          61.8250   90.0678   10.2144 C.ar    1  UNL1        0.1787
      6 N          62.0332   88.9085   11.1432 N.ar    1  UNL1       -0.3082
      7 C          64.6114   91.4555   12.5329 C.2     1  UNL1        0.2695
      8 O          65.1397   92.7339   11.9527 O.2     1  UNL1       -0.2681
      9 N          65.1397   90.9520   13.8435 N.am    1  UNL1       -0.2631
     10 H          64.7929   90.1130   14.2243 H       1  UNL1        0.1567
     11 C          66.1961   91.7269   14.5737 C.ar    1  UNL1        0.1557
     12 C          66.0019   92.5020   15.8431 C.ar    1  UNL1        0.0564
     13 C          67.3180   93.1169   16.2168 C.ar    1  UNL1        0.0981
     14 N          68.3257   92.7219   15.1783 N.ar    1  UNL1       -0.2462
     15 C          69.7728   93.1166   15.1586 C.3     1  UNL1        0.1538
     16 N          67.6323   91.8628   14.1628 N.ar    1  UNL1       -0.1539
     17 C          61.3009   87.6002   11.0983 C.3     1  UNL1        0.1340
     18 C          60.8276   87.0503    9.7854 C.ar    1  UNL1        0.0004
     19 C          59.4314   87.3307    9.3144 C.ar    1  UNL1       -0.0024
     20 C          58.9582   86.7807    8.0015 C.ar    1  UNL1       -0.0003
     21 C          59.8812   85.9503    7.1598 C.ar    1  UNL1        0.0038
     22 C          61.2774   85.6699    7.6309 C.ar    1  UNL1        0.0712
     23 C          61.7506   86.2199    8.9437 C.ar    1  UNL1        0.0015
     24 C          62.2003   84.8395    6.7891 C.3     1  UNL1        0.4186
     25 F          63.1233   84.0091    5.9473 F       1  UNL1       -0.1659
     26 F          61.0322   84.3644    5.9769 F       1  UNL1       -0.1659
     27 F          63.3685   85.3146    7.6013 F       1  UNL1       -0.1659
@<TRIPOS>BOND
     1     1     2    1
     2     2     3   ar
     3     3     7    1
     4     7     8    2
     5     7     9   am
     6     9    11    1
     7    11    12   ar
     8    12    13   ar
     9    13    14   ar
    10    14    15    1
    11    14    16   ar
    12     3     4   ar
    13     4     5   ar
    14     5     6   ar
    15     6    17    1
    16    17    18    1
    17    18    19   ar
    18    19    20   ar
    19    20    21   ar
    20    21    22   ar
    21    22    24    1
    22    24    25    1
    23    24    26    1
    24    24    27    1
    25    22    23   ar
    26     6     2   ar
    27    23    18   ar
    28    16    11   ar
    29     9    10    1
@<TRIPOS>MOLECULE
*****
 27 29 0 0 0
SMALL
GASTEIGER

@<TRIPOS>ATOM
      1 C          63.4561   90.6451   10.4554 C.3     1  UNL1        0.0518
      2 C          62.3650   90.2996   11.4249 C.ar    1  UNL1        0.0612
      3 C          62.4854   90.2873   12.9200 C.ar    1  UNL1        0.1481
      4 N          61.1566   89.8858   13.4887 N.ar    1  UNL1       -0.2196
      5 C          60.2151   89.6501   12.3451 C.ar    1  UNL1        0.1787
      6 N          60.9619   89.9059   11.0696 N.ar    1  UNL1       -0.3082
      7 C          63.7180   90.6182   13.7081 C.2     1  UNL1        0.2695
      8 O          63.9901   89.9156   15.0051 O.2     1  UNL1       -0.2681
      9 N          64.6786   91.6518   13.1991 N.am    1  UNL1       -0.2631
     10 H          64.5000   92.1130   12.3479 H       1  UNL1        0.1567
     11 C          65.9112   91.9827   13.9872 C.ar    1  UNL1        0.1557
     12 C          66.9472   91.0044   14.4556 C.ar    1  UNL1        0.0564
     13 C          68.0006   91.7671   15.2031 C.ar    1  UNL1        0.0981
     14 N          67.6155   93.2168   15.1967 N.ar    1  UNL1       -0.2462
     15 C          68.3864   94.3368   15.8305 C.3     1  UNL1        0.1538
     16 N          66.3242   93.3501   14.4452 N.ar    1  UNL1       -0.1539
     17 C          60.4036   89.7884    9.6823 C.3     1  UNL1        0.1340
     18 C          60.4040   88.4611    8.9835 C.ar    1  UNL1        0.0004
     19 C          59.2907   88.1089    8.0421 C.ar    1  UNL1       -0.0024
     20 C          59.2911   86.7816    7.3433 C.ar    1  UNL1       -0.0003
     21 C          60.4048   85.8065    7.5861 C.ar    1  UNL1        0.0038
     22 C          61.5181   86.1588    8.5276 C.ar    1  UNL1        0.0712
     23 C          61.5177   87.4861    9.2263 C.ar    1  UNL1        0.0015
     24 C          62.6318   85.1837    8.7703 C.3     1  UNL1        0.4186
     25 F          63.7455   84.2087    9.0131 F       1  UNL1       -0.1659
     26 F          62.6304   85.5446   10.2263 F       1  UNL1       -0.1659
     27 F          62.6332   84.8228    7.3144 F       1  UNL1       -0.1659
@<TRIPOS>BOND
     1     1     2    1
     2     2     3   ar
     3     3     7    1
     4     7     8    2
     5     7     9   am
     6     9    11    1
     7    11    12   ar
     8    12    13   ar
     9    13    14   ar
    10    14    15    1
    11    14    16   ar
    12     3     4   ar
    13     4     5   ar
    14     5     6   ar
    15     6    17    1
    16    17    18    1
    17    18    19   ar
    18    19    20   ar
    19    20    21   ar
    20    21    22   ar
    21    22    24    1
    22    24    25    1
    23    24    26    1
    24    24    27    1
    25    22    23   ar
    26     6     2   ar
    27    23    18   ar
    28    16    11   ar
    29     9    10    1
@<TRIPOS>MOLECULE
*****
 27 29 0 0 0
SMALL
GASTEIGER

@<TRIPOS>ATOM
      1 C          63.1252   87.7971   13.0359 C.3     1  UNL1        0.0518
      2 C          62.4986   88.8241   12.1401 C.ar    1  UNL1        0.0612
      3 C          62.8026   90.2930   12.1353 C.ar    1  UNL1        0.1481
      4 N          61.9498   90.9393   11.0841 N.ar    1  UNL1       -0.2196
      5 C          61.1189   89.8699   10.4392 C.ar    1  UNL1        0.1787
      6 N          61.4580   88.5627   11.0919 N.ar    1  UNL1       -0.3082
      7 C          63.7865   90.9927   13.0255 C.2     1  UNL1        0.2695
      8 O          63.4809   91.1767   14.4824 O.2     1  UNL1       -0.2681
      9 N          65.0760   91.5083   12.4586 N.am    1  UNL1       -0.2631
     10 H          65.2766   91.3875   11.5024 H       1  UNL1        0.1567
     11 C          66.0599   92.2079   13.3488 C.ar    1  UNL1        0.1557
     12 C          66.3066   93.6866   13.3994 C.ar    1  UNL1        0.0564
     13 C          67.3690   93.9443   14.4265 C.ar    1  UNL1        0.0981
     14 N          67.7789   92.6249   15.0105 N.ar    1  UNL1       -0.2462
     15 C          68.8159   92.4154   16.0740 C.3     1  UNL1        0.1538
     16 N          66.9698   91.5518   14.3445 N.ar    1  UNL1       -0.1539
     17 C          60.8614   87.2282   10.7553 C.3     1  UNL1        0.1340
     18 C          61.6760   86.2067   10.0185 C.ar    1  UNL1        0.0004
     19 C          62.7375   85.4310   10.7406 C.ar    1  UNL1       -0.0024
     20 C          63.5521   84.4096   10.0038 C.ar    1  UNL1       -0.0003
     21 C          63.3052   84.1638    8.5448 C.ar    1  UNL1        0.0038
     22 C          62.2438   84.9395    7.8227 C.ar    1  UNL1        0.0712
     23 C          61.4292   85.9609    8.5595 C.ar    1  UNL1        0.0015
     24 C          61.9969   84.6937    6.3637 C.3     1  UNL1        0.4186
     25 F          61.7500   84.4479    4.9047 F       1  UNL1       -0.1659
     26 F          63.4711   84.5269    6.1423 F       1  UNL1       -0.1659
     27 F          60.5227   84.8605    6.5850 F       1  UNL1       -0.1659
@<TRIPOS>BOND
     1     1     2    1
     2     2     3   ar
     3     3     7    1
     4     7     8    2
     5     7     9   am
     6     9    11    1
     7    11    12   ar
     8    12    13   ar
     9    13    14   ar
    10    14    15    1
    11    14    16   ar
    12     3     4   ar
    13     4     5   ar
    14     5     6   ar
    15     6    17    1
    16    17    18    1
    17    18    19   ar
    18    19    20   ar
    19    20    21   ar
    20    21    22   ar
    21    22    24    1
    22    24    25    1
    23    24    26    1
    24    24    27    1
    25    22    23   ar
    26     6     2   ar
    27    23    18   ar
    28    16    11   ar
    29     9    10    1
@<TRIPOS>MOLECULE
*****
 27 29 0 0 0
SMALL
GASTEIGER

@<TRIPOS>ATOM
      1 C          63.3619   89.8411   13.6064 C.3     1  UNL1        0.0518
      2 C          63.4345   90.5238   12.2727 C.ar    1  UNL1        0.0612
      3 C          64.3630   91.6429   11.9045 C.ar    1  UNL1        0.1481
      4 N          64.0936   92.0180   10.4773 N.ar    1  UNL1       -0.2196
      5 C          62.9987   91.1308    9.9636 C.ar    1  UNL1        0.1787
      6 N          62.5913   90.2073   11.0732 N.ar    1  UNL1       -0.3082
      7 C          65.3818   92.2757   12.8053 C.2     1  UNL1        0.2695
      8 O          65.5731   93.7634   12.7927 O.2     1  UNL1       -0.2681
      9 N          66.2095   91.4209   13.7187 N.am    1  UNL1       -0.2631
     10 H          66.0840   90.4444   13.7270 H       1  UNL1        0.1567
     11 C          67.2283   92.0537   14.6194 C.ar    1  UNL1        0.1557
     12 C          68.0614   91.3430   15.6445 C.ar    1  UNL1        0.0564
     13 C          68.9410   92.3584   16.3119 C.ar    1  UNL1        0.0981
     14 N          68.6515   93.6966   15.6992 N.ar    1  UNL1       -0.2462
     15 C          69.3056   94.9953   16.0678 C.3     1  UNL1        0.1538
     16 N          67.5930   93.5083   14.6532 N.ar    1  UNL1       -0.1539
     17 C          61.5276   89.1526   10.9966 C.3     1  UNL1        0.1340
     18 C          61.9006   87.7318   10.6926 C.ar    1  UNL1        0.0004
     19 C          62.3819   86.8312   11.7914 C.ar    1  UNL1       -0.0024
     20 C          62.7549   85.4105   11.4874 C.ar    1  UNL1       -0.0003
     21 C          62.6467   84.8904   10.0846 C.ar    1  UNL1        0.0038
     22 C          62.1654   85.7910    8.9859 C.ar    1  UNL1        0.0712
     23 C          61.7924   87.2117    9.2899 C.ar    1  UNL1        0.0015
     24 C          62.0572   85.2709    7.5831 C.3     1  UNL1        0.4186
     25 F          61.9490   84.7508    6.1803 F       1  UNL1       -0.1659
     26 F          63.2686   84.4150    7.8070 F       1  UNL1       -0.1659
     27 F          60.8459   86.1267    7.3592 F       1  UNL1       -0.1659
@<TRIPOS>BOND
     1     1     2    1
     2     2     3   ar
     3     3     7    1
     4     7     8    2
     5     7     9   am
     6     9    11    1
     7    11    12   ar
     8    12    13   ar
     9    13    14   ar
    10    14    15    1
    11    14    16   ar
    12     3     4   ar
    13     4     5   ar
    14     5     6   ar
    15     6    17    1
    16    17    18    1
    17    18    19   ar
    18    19    20   ar
    19    20    21   ar
    20    21    22   ar
    21    22    24    1
    22    24    25    1
    23    24    26    1
    24    24    27    1
    25    22    23   ar
    26     6     2   ar
    27    23    18   ar
    28    16    11   ar
    29     9    10    1
