@<TRIPOS>MOLECULE
*****
 29 33 0 0 0
SMALL
GASTEIGER

@<TRIPOS>ATOM
      1 C          63.6004   89.1114   13.1898 C.ar    1  UNL1        0.1347
      2 C          62.6350   89.3619   12.0696 C.ar    1  UNL1        0.0507
      3 C          61.9633   88.2077   11.3862 C.ar    1  UNL1        0.0831
      4 N          62.2571   86.8032   11.8232 N.ar    1  UNL1       -0.2294
      5 C          63.2226   86.5528   12.9435 C.ar    1  UNL1        0.1615
      6 N          63.8943   87.7068   13.6269 N.ar    1  UNL1       -0.2122
      7 C          63.5165   85.1482   13.3805 C.2     1  UNL1        0.0422
      8 C          63.6400   84.8273   14.8405 C.2     1  UNL1        0.0983
      9 N          63.9338   83.4229   15.2775 N.2     1  UNL1       -0.2413
     10 C          64.1041   82.3391   14.2544 C.2     1  UNL1        0.1141
     11 C          63.9805   82.6600   12.7944 C.2     1  UNL1        0.0860
     12 N          64.0969   81.8071   11.5660 N.2     1  UNL1       -0.2463
     13 C          63.8750   82.6846   10.3698 C.2     1  UNL1        0.0947
     14 C          63.6215   84.0797   10.8589 C.2     1  UNL1        0.0047
     15 C          63.6867   84.0646   12.3574 C.3     1  UNL1        0.0919
     16 C          63.1539   89.5871   16.1180 C.3     1  UNL1        0.0241
     17 C          64.0488   90.5033   15.3373 C.3     1  UNL1        0.1038
     18 C          64.7205   91.6574   16.0206 C.3     1  UNL1        0.1618
     19 O          65.6155   92.5736   15.2398 O.3     1  UNL1       -0.3502
     20 C          65.8388   92.3358   13.7758 C.3     1  UNL1        0.1636
     21 C          65.1671   91.1817   13.0924 C.3     1  UNL1        0.1242
     22 N          64.2721   90.2654   13.8732 N.pl3   1  UNL1       -0.2897
     23 C          60.9978   88.4582   10.2659 C.3     1  UNL1        0.1456
     24 C          60.3317   88.3428    8.9269 C.3     1  UNL1        0.0297
     25 C          61.5247   87.4916    9.2470 C.3     1  UNL1        0.0297
     26 S          60.1357   89.5117   10.8958 S.O2    1  UNL1       -0.0065
     27 C          59.2736   90.5652   11.5257 C.3     1  UNL1        0.1764
     28 O          60.6721   90.5274    9.9311 O.2     1  UNL1       -0.1727
     29 O          59.5992   88.4960   11.8605 O.2     1  UNL1       -0.1727
@<TRIPOS>BOND
     1    17    16    1
     2    17    18    1
     3    18    19    1
     4    19    20    1
     5    20    21    1
     6    21    22    1
     7    22     1    1
     8     1     2   ar
     9     2     3   ar
    10     3    23    1
    11    23    26    1
    12    26    27    1
    13    26    28    2
    14    26    29    2
    15    23    24    1
    16    24    25    1
    17     3     4   ar
    18     4     5   ar
    19     5     7    1
    20     7     8    2
    21     8     9    1
    22     9    10    2
    23    10    11    1
    24    11    12    2
    25    12    13    1
    26    13    14    2
    27    14    15    1
    28     5     6   ar
    29    22    17    1
    30     6     1   ar
    31    25    23    1
    32    15     7    1
    33    15    11    1
@<TRIPOS>MOLECULE
*****
 29 33 0 0 0
SMALL
GASTEIGER

@<TRIPOS>ATOM
      1 C          63.5843   89.3289   12.7854 C.ar    1  UNL1        0.1347
      2 C          62.5044   89.5199   11.7620 C.ar    1  UNL1        0.0507
      3 C          61.7420   88.3355   11.2461 C.ar    1  UNL1        0.0831
      4 N          62.0596   86.9602   11.7536 N.ar    1  UNL1       -0.2294
      5 C          63.1395   86.7692   12.7770 C.ar    1  UNL1        0.1615
      6 N          63.9019   87.9535   13.2929 N.ar    1  UNL1       -0.2122
      7 C          63.4571   85.3938   13.2845 C.2     1  UNL1        0.0422
      8 C          63.6089   85.1544   14.7575 C.2     1  UNL1        0.0983
      9 N          63.9264   83.7791   15.2649 N.2     1  UNL1       -0.2413
     10 C          64.0922   82.6431   14.2994 C.2     1  UNL1        0.1141
     11 C          63.9403   82.8825   12.8265 C.2     1  UNL1        0.0860
     12 N          64.0461   81.9652   11.6444 N.2     1  UNL1       -0.2463
     13 C          63.7939   82.7736   10.4064 C.2     1  UNL1        0.0947
     14 C          63.5323   84.1906   10.8233 C.2     1  UNL1        0.0047
     15 C          63.6228   84.2579   12.3190 C.3     1  UNL1        0.0919
     16 C          64.2967   91.5776   10.9318 C.3     1  UNL1        0.0241
     17 C          64.7028   91.6376   12.3745 C.3     1  UNL1        0.1038
     18 C          65.4652   92.8219   12.8904 C.3     1  UNL1        0.1618
     19 O          65.8713   92.8819   14.3331 O.3     1  UNL1       -0.3502
     20 C          65.5152   91.7576   15.2600 C.3     1  UNL1        0.1636
     21 C          64.7528   90.5732   14.7441 C.3     1  UNL1        0.1242
     22 N          64.3466   90.5132   13.3013 N.pl3   1  UNL1       -0.2897
     23 C          60.6621   88.5265   10.2228 C.3     1  UNL1        0.1456
     24 C          59.8635   88.3465    8.9658 C.3     1  UNL1        0.0297
     25 C          61.0970   87.5242    9.1950 C.3     1  UNL1        0.0297
     26 S          59.8523   89.5952   10.8951 S.O2    1  UNL1       -0.0065
     27 C          59.0425   90.6639   11.5674 C.3     1  UNL1        0.1764
     28 O          59.4940   88.6347   11.9902 O.2     1  UNL1       -0.1727
     29 O          60.2106   90.5557    9.8001 O.2     1  UNL1       -0.1727
@<TRIPOS>BOND
     1    17    16    1
     2    17    18    1
     3    18    19    1
     4    19    20    1
     5    20    21    1
     6    21    22    1
     7    22     1    1
     8     1     2   ar
     9     2     3   ar
    10     3    23    1
    11    23    26    1
    12    26    27    1
    13    26    28    2
    14    26    29    2
    15    23    24    1
    16    24    25    1
    17     3     4   ar
    18     4     5   ar
    19     5     7    1
    20     7     8    2
    21     8     9    1
    22     9    10    2
    23    10    11    1
    24    11    12    2
    25    12    13    1
    26    13    14    2
    27    14    15    1
    28     5     6   ar
    29    22    17    1
    30     6     1   ar
    31    25    23    1
    32    15     7    1
    33    15    11    1
@<TRIPOS>MOLECULE
*****
 29 33 0 0 0
SMALL
GASTEIGER

@<TRIPOS>ATOM
      1 C          63.5681   89.1954   13.0711 C.ar    1  UNL1        0.1347
      2 C          62.6545   89.4629   11.9119 C.ar    1  UNL1        0.0507
      3 C          61.9841   88.3214   11.2064 C.ar    1  UNL1        0.0831
      4 N          62.2272   86.9126   11.6602 N.ar    1  UNL1       -0.2294
      5 C          63.1409   86.6451   12.8195 C.ar    1  UNL1        0.1615
      6 N          63.8113   87.7865   13.5249 N.ar    1  UNL1       -0.2122
      7 C          63.3840   85.2362   13.2732 C.2     1  UNL1        0.0422
      8 C          63.4109   84.9141   14.7380 C.2     1  UNL1        0.0983
      9 N          63.6540   83.5053   15.1918 N.2     1  UNL1       -0.2413
     10 C          63.8703   82.4184   14.1808 C.2     1  UNL1        0.1141
     11 C          63.8434   82.7405   12.7160 C.2     1  UNL1        0.0860
     12 N          64.0226   81.8853   11.4969 N.2     1  UNL1       -0.2463
     13 C          63.8901   82.7656   10.2896 C.2     1  UNL1        0.0947
     14 C          63.6292   84.1649   10.7626 C.2     1  UNL1        0.0047
     15 C          63.6003   84.1494   12.2623 C.3     1  UNL1        0.0919
     16 C          63.1460   89.5957   16.0142 C.3     1  UNL1        0.0241
     17 C          64.0275   90.5370   15.2481 C.3     1  UNL1        0.1038
     18 C          64.6979   91.6784   15.9536 C.3     1  UNL1        0.1618
     19 O          65.5794   92.6197   15.1875 O.3     1  UNL1       -0.3502
     20 C          65.7906   92.4197   13.7160 C.3     1  UNL1        0.1636
     21 C          65.1201   91.2782   13.0105 C.3     1  UNL1        0.1242
     22 N          64.2386   90.3369   13.7766 N.pl3   1  UNL1       -0.2897
     23 C          61.0705   88.5889   10.0472 C.3     1  UNL1        0.1456
     24 C          60.1115   89.3073    9.1449 C.3     1  UNL1        0.0297
     25 C          60.6225   89.9802   10.3843 C.3     1  UNL1        0.0297
     26 S          61.2013   87.2905    9.3076 S.O2    1  UNL1       -0.0065
     27 C          61.3321   85.9922    8.5680 C.3     1  UNL1        0.1764
     28 O          59.7260   87.0603    9.4508 O.2     1  UNL1       -0.1727
     29 O          62.6766   87.5207    9.1644 O.2     1  UNL1       -0.1727
@<TRIPOS>BOND
     1    17    16    1
     2    17    18    1
     3    18    19    1
     4    19    20    1
     5    20    21    1
     6    21    22    1
     7    22     1    1
     8     1     2   ar
     9     2     3   ar
    10     3    23    1
    11    23    26    1
    12    26    27    1
    13    26    28    2
    14    26    29    2
    15    23    24    1
    16    24    25    1
    17     3     4   ar
    18     4     5   ar
    19     5     7    1
    20     7     8    2
    21     8     9    1
    22     9    10    2
    23    10    11    1
    24    11    12    2
    25    12    13    1
    26    13    14    2
    27    14    15    1
    28     5     6   ar
    29    22    17    1
    30     6     1   ar
    31    25    23    1
    32    15     7    1
    33    15    11    1
@<TRIPOS>MOLECULE
*****
 29 33 0 0 0
SMALL
GASTEIGER

@<TRIPOS>ATOM
      1 C          61.8375   87.1622   10.5475 C.ar    1  UNL1        0.1347
      2 C          62.2586   88.5587   10.8970 C.ar    1  UNL1        0.0507
      3 C          63.0881   88.8075   12.1219 C.ar    1  UNL1        0.0831
      4 N          63.4963   87.6598   12.9971 N.ar    1  UNL1       -0.2294
      5 C          63.0750   86.2632   12.6475 C.ar    1  UNL1        0.1615
      6 N          62.2456   86.0143   11.4227 N.ar    1  UNL1       -0.2122
      7 C          63.4832   85.1154   13.5227 C.2     1  UNL1        0.0422
      8 C          63.9825   85.3734   14.9135 C.2     1  UNL1        0.0983
      9 N          64.3907   84.2257   15.7887 N.2     1  UNL1       -0.2413
     10 C          64.2997   82.8199   15.2733 C.2     1  UNL1        0.1141
     11 C          63.8004   82.5620   13.8825 C.2     1  UNL1        0.0860
     12 N          63.6024   81.2938   13.1063 N.2     1  UNL1       -0.2463
     13 C          63.0718   81.6578   11.7513 C.2     1  UNL1        0.0947
     14 C          62.9419   83.1509   11.6901 C.2     1  UNL1        0.0047
     15 C          63.3922   83.7097   13.0073 C.3     1  UNL1        0.0919
     16 C          62.8375   85.3105    8.4094 C.3     1  UNL1        0.0241
     17 C          61.5081   85.9875    8.2536 C.3     1  UNL1        0.1038
     18 C          60.6787   85.7387    7.0288 C.3     1  UNL1        0.1618
     19 O          59.3493   86.4157    6.8730 O.3     1  UNL1       -0.3502
     20 C          58.8492   87.3415    7.9420 C.3     1  UNL1        0.1636
     21 C          59.6786   87.5904    9.1669 C.3     1  UNL1        0.1242
     22 N          61.0081   86.9134    9.3227 N.pl3   1  UNL1       -0.2897
     23 C          63.5093   90.2040   12.4715 C.3     1  UNL1        0.1456
     24 C          63.9102   91.6395   12.3020 C.3     1  UNL1        0.0297
     25 C          63.5973   90.8010   11.0982 C.3     1  UNL1        0.0297
     26 S          63.5675   90.0921   13.9662 S.O2    1  UNL1       -0.0065
     27 C          63.6257   89.9801   15.4608 C.3     1  UNL1        0.1764
     28 O          62.0845   89.8704   14.0073 O.2     1  UNL1       -0.1727
     29 O          65.0505   90.3137   13.9250 O.2     1  UNL1       -0.1727
@<TRIPOS>BOND
     1    17    16    1
     2    17    18    1
     3    18    19    1
     4    19    20    1
     5    20    21    1
     6    21    22    1
     7    22     1    1
     8     1     2   ar
     9     2     3   ar
    10     3    23    1
    11    23    26    1
    12    26    27    1
    13    26    28    2
    14    26    29    2
    15    23    24    1
    16    24    25    1
    17     3     4   ar
    18     4     5   ar
    19     5     7    1
    20     7     8    2
    21     8     9    1
    22     9    10    2
    23    10    11    1
    24    11    12    2
    25    12    13    1
    26    13    14    2
    27    14    15    1
    28     5     6   ar
    29    22    17    1
    30     6     1   ar
    31    25    23    1
    32    15     7    1
    33    15    11    1
@<TRIPOS>MOLECULE
*****
 29 33 0 0 0
SMALL
GASTEIGER

@<TRIPOS>ATOM
      1 C          63.6158   88.5567   13.1345 C.ar    1  UNL1        0.1347
      2 C          63.9575   87.3039   13.8853 C.ar    1  UNL1        0.0507
      3 C          63.4294   85.9806   13.4161 C.ar    1  UNL1        0.0831
      4 N          62.5596   85.9102   12.1961 N.ar    1  UNL1       -0.2294
      5 C          62.2178   87.1631   11.4453 C.ar    1  UNL1        0.1615
      6 N          62.7460   88.4863   11.9144 N.ar    1  UNL1       -0.2122
      7 C          61.3480   87.0926   10.2252 C.2     1  UNL1        0.0422
      8 C          60.0776   87.8876   10.1630 C.2     1  UNL1        0.0983
      9 N          59.2078   87.8172    8.9431 N.2     1  UNL1       -0.2413
     10 C          59.6083   86.9517    7.7852 C.2     1  UNL1        0.1141
     11 C          60.8788   86.1567    7.8475 C.2     1  UNL1        0.0860
     12 N          61.5275   85.2232    6.8689 N.2     1  UNL1       -0.2463
     13 C          62.7983   84.7167    7.4841 C.2     1  UNL1        0.0947
     14 C          62.9350   85.3372    8.8429 C.2     1  UNL1        0.0047
     15 C          61.7486   86.2272    9.0675 C.3     1  UNL1        0.0919
     16 C          63.4547   89.2917   16.0386 C.3     1  UNL1        0.0241
     17 C          64.0634   90.2474   15.0557 C.3     1  UNL1        0.1038
     18 C          64.5915   91.5706   15.5249 C.3     1  UNL1        0.1618
     19 O          65.2002   92.5264   14.5420 O.3     1  UNL1       -0.3502
     20 C          65.2808   92.1590   13.0900 C.3     1  UNL1        0.1636
     21 C          64.7527   90.8357   12.6207 C.3     1  UNL1        0.1242
     22 N          64.1440   89.8799   13.6037 N.pl3   1  UNL1       -0.2897
     23 C          63.7711   84.7279   14.1669 C.3     1  UNL1        0.1456
     24 C          64.2940   83.3498   14.4457 C.3     1  UNL1        0.0297
     25 C          64.4114   83.9322   13.0683 C.3     1  UNL1        0.0297
     26 S          63.2494   85.0885   15.5263 S.O2    1  UNL1       -0.0065
     27 C          62.7279   85.4491   16.8856 C.3     1  UNL1        0.1764
     28 O          61.8586   84.7410   15.0848 O.2     1  UNL1       -0.1727
     29 O          64.6402   85.4360   15.9678 O.2     1  UNL1       -0.1727
@<TRIPOS>BOND
     1    17    16    1
     2    17    18    1
     3    18    19    1
     4    19    20    1
     5    20    21    1
     6    21    22    1
     7    22     1    1
     8     1     2   ar
     9     2     3   ar
    10     3    23    1
    11    23    26    1
    12    26    27    1
    13    26    28    2
    14    26    29    2
    15    23    24    1
    16    24    25    1
    17     3     4   ar
    18     4     5   ar
    19     5     7    1
    20     7     8    2
    21     8     9    1
    22     9    10    2
    23    10    11    1
    24    11    12    2
    25    12    13    1
    26    13    14    2
    27    14    15    1
    28     5     6   ar
    29    22    17    1
    30     6     1   ar
    31    25    23    1
    32    15     7    1
    33    15    11    1
@<TRIPOS>MOLECULE
*****
 29 33 0 0 0
SMALL
GASTEIGER

@<TRIPOS>ATOM
      1 C          63.6310   88.4801   13.2677 C.ar    1  UNL1        0.1347
      2 C          64.0228   87.2069   13.9572 C.ar    1  UNL1        0.0507
      3 C          63.5317   85.8893   13.4347 C.ar    1  UNL1        0.0831
      4 N          62.6489   85.8451   12.2228 N.ar    1  UNL1       -0.2294
      5 C          62.2571   87.1184   11.5334 C.ar    1  UNL1        0.1615
      6 N          62.7481   88.4359   12.0558 N.ar    1  UNL1       -0.2122
      7 C          61.3743   87.0741   10.3215 C.2     1  UNL1        0.0422
      8 C          60.1066   87.8752   10.2873 C.2     1  UNL1        0.0983
      9 N          59.2238   87.8309    9.0755 N.2     1  UNL1       -0.2413
     10 C          59.6087   86.9855    7.8977 C.2     1  UNL1        0.1141
     11 C          60.8763   86.1844    7.9318 C.2     1  UNL1        0.0860
     12 N          61.5109   85.2666    6.9293 N.2     1  UNL1       -0.2463
     13 C          62.7859   84.7436    7.5217 C.2     1  UNL1        0.0947
     14 C          62.9393   85.3382    8.8902 C.2     1  UNL1        0.0047
     15 C          61.7592   86.2287    9.1437 C.3     1  UNL1        0.0919
     16 C          63.2206   89.1972   16.1518 C.3     1  UNL1        0.0241
     17 C          63.9168   90.1562   15.2322 C.3     1  UNL1        0.1038
     18 C          64.4078   91.4738   15.7547 C.3     1  UNL1        0.1618
     19 O          65.1040   92.4328   14.8351 O.3     1  UNL1       -0.3502
     20 C          65.3093   92.0744   13.3932 C.3     1  UNL1        0.1636
     21 C          64.8182   90.7568   12.8706 C.3     1  UNL1        0.1242
     22 N          64.1220   89.7977   13.7902 N.pl3   1  UNL1       -0.2897
     23 C          63.9235   84.6161   14.1241 C.3     1  UNL1        0.1456
     24 C          64.5213   83.6907   15.1421 C.3     1  UNL1        0.0297
     25 C          64.6528   85.1756   15.3095 C.3     1  UNL1        0.0297
     26 S          63.3302   83.6145   13.1781 S.O2    1  UNL1       -0.0065
     27 C          62.7370   82.6130   12.2322 C.3     1  UNL1        0.1764
     28 O          64.5255   83.7525   12.2824 O.2     1  UNL1       -0.1727
     29 O          62.1349   83.4765   14.0738 O.2     1  UNL1       -0.1727
@<TRIPOS>BOND
     1    17    16    1
     2    17    18    1
     3    18    19    1
     4    19    20    1
     5    20    21    1
     6    21    22    1
     7    22     1    1
     8     1     2   ar
     9     2     3   ar
    10     3    23    1
    11    23    26    1
    12    26    27    1
    13    26    28    2
    14    26    29    2
    15    23    24    1
    16    24    25    1
    17     3     4   ar
    18     4     5   ar
    19     5     7    1
    20     7     8    2
    21     8     9    1
    22     9    10    2
    23    10    11    1
    24    11    12    2
    25    12    13    1
    26    13    14    2
    27    14    15    1
    28     5     6   ar
    29    22    17    1
    30     6     1   ar
    31    25    23    1
    32    15     7    1
    33    15    11    1
@<TRIPOS>MOLECULE
*****
 29 33 0 0 0
SMALL
GASTEIGER

@<TRIPOS>ATOM
      1 C          65.4300   92.8819   11.2823 C.ar    1  UNL1        0.1347
      2 C          65.7231   92.8762   12.7534 C.ar    1  UNL1        0.0507
      3 C          64.9990   91.9242   13.6587 C.ar    1  UNL1        0.0831
      4 N          63.9818   90.9781   13.0930 N.ar    1  UNL1       -0.2294
      5 C          63.6887   90.9838   11.6218 C.ar    1  UNL1        0.1615
      6 N          64.4127   91.9357   10.7165 N.ar    1  UNL1       -0.2122
      7 C          62.6715   90.0377   11.0561 C.2     1  UNL1        0.0422
      8 C          61.7013   90.5136   10.0158 C.2     1  UNL1        0.0983
      9 N          60.6842   89.5675    9.4501 N.2     1  UNL1       -0.2413
     10 C          60.6370   88.1453    9.9247 C.2     1  UNL1        0.1141
     11 C          61.6071   87.6693   10.9650 C.2     1  UNL1        0.0860
     12 N          61.7996   86.3347   11.6220 N.2     1  UNL1       -0.2463
     13 C          62.9357   86.4560   12.5938 C.2     1  UNL1        0.0947
     14 C          63.4455   87.8656   12.5374 C.2     1  UNL1        0.0047
     15 C          62.6243   88.6155   11.5307 C.3     1  UNL1        0.0919
     16 C          67.9113   91.9946    9.8486 C.3     1  UNL1        0.0241
     17 C          67.3947   93.3901    9.6601 C.3     1  UNL1        0.1038
     18 C          68.1187   94.3420    8.7548 C.3     1  UNL1        0.1618
     19 O          67.6021   95.7375    8.5663 O.3     1  UNL1       -0.3502
     20 C          66.3615   96.1813    9.2831 C.3     1  UNL1        0.1636
     21 C          65.6374   95.2294   10.1885 C.3     1  UNL1        0.1242
     22 N          66.1540   93.8338   10.3770 N.pl3   1  UNL1       -0.2897
     23 C          65.2921   91.9185   15.1297 C.3     1  UNL1        0.1456
     24 C          65.9217   92.2779   16.4430 C.3     1  UNL1        0.0297
     25 C          66.3627   92.9677   15.1860 C.3     1  UNL1        0.0297
     26 S          64.3234   90.8673   15.5842 S.O2    1  UNL1       -0.0065
     27 C          63.3548   89.8161   16.0387 C.3     1  UNL1        0.1764
     28 O          63.5094   91.9181   16.2795 O.2     1  UNL1       -0.1727
     29 O          65.1374   89.8166   14.8890 O.2     1  UNL1       -0.1727
@<TRIPOS>BOND
     1    17    16    1
     2    17    18    1
     3    18    19    1
     4    19    20    1
     5    20    21    1
     6    21    22    1
     7    22     1    1
     8     1     2   ar
     9     2     3   ar
    10     3    23    1
    11    23    26    1
    12    26    27    1
    13    26    28    2
    14    26    29    2
    15    23    24    1
    16    24    25    1
    17     3     4   ar
    18     4     5   ar
    19     5     7    1
    20     7     8    2
    21     8     9    1
    22     9    10    2
    23    10    11    1
    24    11    12    2
    25    12    13    1
    26    13    14    2
    27    14    15    1
    28     5     6   ar
    29    22    17    1
    30     6     1   ar
    31    25    23    1
    32    15     7    1
    33    15    11    1
@<TRIPOS>MOLECULE
*****
 29 33 0 0 0
SMALL
GASTEIGER

@<TRIPOS>ATOM
      1 C          62.7526   85.6552   12.3253 C.ar    1  UNL1        0.1347
      2 C          61.7574   85.9141   11.2332 C.ar    1  UNL1        0.0507
      3 C          61.4762   87.3202   10.7928 C.ar    1  UNL1        0.0831
      4 N          62.1900   88.4672   11.4443 N.ar    1  UNL1       -0.2294
      5 C          63.1852   88.2082   12.5364 C.ar    1  UNL1        0.1615
      6 N          63.4665   86.8023   12.9769 N.ar    1  UNL1       -0.2122
      7 C          63.8991   89.3554   13.1880 C.2     1  UNL1        0.0422
      8 C          64.2991   89.2675   14.6310 C.2     1  UNL1        0.0983
      9 N          65.0129   90.4145   15.2825 N.2     1  UNL1       -0.2413
     10 C          65.3269   91.6496   14.4911 C.2     1  UNL1        0.1141
     11 C          64.9269   91.7374   13.0481 C.2     1  UNL1        0.0860
     12 N          65.1003   92.8182   12.0226 N.2     1  UNL1       -0.2463
     13 C          64.4935   92.3391   10.7372 C.2     1  UNL1        0.0947
     14 C          63.9452   90.9622   10.9683 C.2     1  UNL1        0.0047
     15 C          64.2130   90.5903   12.3966 C.3     1  UNL1        0.0919
     16 C          63.9618   83.6947   10.4032 C.3     1  UNL1        0.0241
     17 C          63.6385   83.2689   11.8047 C.3     1  UNL1        0.1038
     18 C          63.9198   81.8629   12.2452 C.3     1  UNL1        0.1618
     19 O          63.5965   81.4372   13.6467 O.3     1  UNL1       -0.3502
     20 C          62.9919   82.4173   14.6077 C.3     1  UNL1        0.1636
     21 C          62.7106   83.8234   14.1673 C.3     1  UNL1        0.1242
     22 N          63.0339   84.2492   12.7657 N.pl3   1  UNL1       -0.2897
     23 C          60.4810   87.5790    9.7007 C.3     1  UNL1        0.1456
     24 C          59.6330   87.3540    8.4840 C.3     1  UNL1        0.0297
     25 C          60.5593   86.2756    8.9626 C.3     1  UNL1        0.0297
     26 S          60.0571   88.9724   10.0596 S.O2    1  UNL1       -0.0065
     27 C          59.6332   90.3657   10.4185 C.3     1  UNL1        0.1764
     28 O          59.4109   88.4538   11.3100 O.2     1  UNL1       -0.1727
     29 O          60.7033   89.4911    8.8093 O.2     1  UNL1       -0.1727
@<TRIPOS>BOND
     1    17    16    1
     2    17    18    1
     3    18    19    1
     4    19    20    1
     5    20    21    1
     6    21    22    1
     7    22     1    1
     8     1     2   ar
     9     2     3   ar
    10     3    23    1
    11    23    26    1
    12    26    27    1
    13    26    28    2
    14    26    29    2
    15    23    24    1
    16    24    25    1
    17     3     4   ar
    18     4     5   ar
    19     5     7    1
    20     7     8    2
    21     8     9    1
    22     9    10    2
    23    10    11    1
    24    11    12    2
    25    12    13    1
    26    13    14    2
    27    14    15    1
    28     5     6   ar
    29    22    17    1
    30     6     1   ar
    31    25    23    1
    32    15     7    1
    33    15    11    1
@<TRIPOS>MOLECULE
*****
 29 33 0 0 0
SMALL
GASTEIGER

@<TRIPOS>ATOM
      1 C          61.9006   86.4900   10.8693 C.ar    1  UNL1        0.1347
      2 C          62.1342   85.2345   11.6562 C.ar    1  UNL1        0.0507
      3 C          62.9378   85.2814   12.9220 C.ar    1  UNL1        0.0831
      4 N          63.5078   86.5836   13.4007 N.ar    1  UNL1       -0.2294
      5 C          63.2742   87.8391   12.6137 C.ar    1  UNL1        0.1615
      6 N          62.4706   87.7923   11.3480 N.ar    1  UNL1       -0.2122
      7 C          63.8443   89.1413   13.0925 C.2     1  UNL1        0.0422
      8 C          64.3432   89.2689   14.5013 C.2     1  UNL1        0.0983
      9 N          64.9132   90.5710   14.9801 N.2     1  UNL1       -0.2413
     10 C          64.9843   91.7458   14.0500 C.2     1  UNL1        0.1141
     11 C          64.4854   91.6183   12.6412 C.2     1  UNL1        0.0860
     12 N          64.4266   92.5957   11.5050 N.2     1  UNL1       -0.2463
     13 C          63.8203   91.8976   10.3239 C.2     1  UNL1        0.0947
     14 C          63.5043   90.4887   10.7303 C.2     1  UNL1        0.0047
     15 C          63.9154   90.3160   12.1625 C.3     1  UNL1        0.0919
     16 C          63.0020   85.1109    8.4433 C.3     1  UNL1        0.0241
     17 C          61.6477   85.7536    8.3906 C.3     1  UNL1        0.1038
     18 C          60.8441   85.7068    7.1249 C.3     1  UNL1        0.1618
     19 O          59.4898   86.3496    7.0722 O.3     1  UNL1       -0.3502
     20 C          58.9390   87.0391    8.2851 C.3     1  UNL1        0.1636
     21 C          59.7426   87.0859    9.5509 C.3     1  UNL1        0.1242
     22 N          61.0970   86.4432    9.6036 N.pl3   1  UNL1       -0.2897
     23 C          63.1714   84.0259   13.7089 C.3     1  UNL1        0.1456
     24 C          63.4126   82.5768   14.0123 C.3     1  UNL1        0.0297
     25 C          63.2743   83.0324   12.5898 C.3     1  UNL1        0.0297
     26 S          63.1497   84.5835   15.1013 S.O2    1  UNL1       -0.0065
     27 C          63.1279   85.1410   16.4936 C.3     1  UNL1        0.1764
     28 O          64.6439   84.4714   15.1695 O.2     1  UNL1       -0.1727
     29 O          61.6554   84.6956   15.0331 O.2     1  UNL1       -0.1727
@<TRIPOS>BOND
     1    17    16    1
     2    17    18    1
     3    18    19    1
     4    19    20    1
     5    20    21    1
     6    21    22    1
     7    22     1    1
     8     1     2   ar
     9     2     3   ar
    10     3    23    1
    11    23    26    1
    12    26    27    1
    13    26    28    2
    14    26    29    2
    15    23    24    1
    16    24    25    1
    17     3     4   ar
    18     4     5   ar
    19     5     7    1
    20     7     8    2
    21     8     9    1
    22     9    10    2
    23    10    11    1
    24    11    12    2
    25    12    13    1
    26    13    14    2
    27    14    15    1
    28     5     6   ar
    29    22    17    1
    30     6     1   ar
    31    25    23    1
    32    15     7    1
    33    15    11    1
