@<TRIPOS>MOLECULE
*****
 20 22 0 0 0
SMALL
GASTEIGER

@<TRIPOS>ATOM
      1 C          64.8932   92.0974   11.3833 C.ar    1  UNL1        0.0281
      2 C          63.7576   91.5615   10.5627 C.ar    1  UNL1        0.0994
      3 N          62.7551   90.6350   11.1842 N.ar    1  UNL1       -0.2423
      4 C          62.8881   90.2443   12.6263 C.ar    1  UNL1        0.0990
      5 C          64.0236   90.7802   13.4469 C.ar    1  UNL1        0.0237
      6 C          65.0261   91.7068   12.8254 C.ar    1  UNL1        0.0381
      7 C          66.9989   95.0351    9.9684 C.ar    1  UNL1        0.0230
      8 C          67.8784   93.8645    9.6422 C.ar    1  UNL1        0.0040
      9 C          67.1966   92.6217   10.1325 C.ar    1  UNL1        0.0067
     10 C          65.8958   93.0240   10.7617 C.ar    1  UNL1        0.0308
     11 S          65.7736   94.5156   10.6603 S.2     1  UNL1       -0.0899
     12 N          67.8137   96.8558    8.3039 N.3     1  UNL1       -0.3170
     13 C          67.2931   96.4727    9.6574 C.3     1  UNL1        0.0987
     14 H          67.9568   97.8651    8.2678 H       1  UNL1        0.1192
     15 H          67.1385   96.5824    7.5899 H       1  UNL1        0.1192
     16 C          66.1617   92.2427   13.6460 C.ar    1  UNL1        0.1456
     17 C          67.5343   91.6464   13.7477 C.ar    1  UNL1        0.0407
     18 C          68.3449   92.5042   14.6735 C.ar    1  UNL1        0.0438
     19 C          67.4733   93.6308   15.1439 C.ar    1  UNL1        0.1796
     20 O          66.1240   93.4691   14.5089 O.2     1  UNL1       -0.4504
@<TRIPOS>BOND
     1    12    13    1
     2    13     7    1
     3     7     8   ar
     4     8     9   ar
     5     9    10   ar
     6    10     1    1
     7     1     2   ar
     8     2     3   ar
     9     3     4   ar
    10     4     5   ar
    11     5     6   ar
    12     6    16    1
    13    16    17   ar
    14    17    18   ar
    15    18    19   ar
    16    19    20   ar
    17    10    11   ar
    18    11     7   ar
    19     6     1   ar
    20    20    16   ar
    21    12    14    1
    22    12    15    1
@<TRIPOS>MOLECULE
*****
 20 22 0 0 0
SMALL
GASTEIGER

@<TRIPOS>ATOM
      1 C          60.8172   86.7576    9.0514 C.ar    1  UNL1        0.0281
      2 C          60.0420   86.1322    7.9298 C.ar    1  UNL1        0.0994
      3 N          59.1627   86.9817    7.0609 N.ar    1  UNL1       -0.2423
      4 C          59.0586   88.4566    7.3134 C.ar    1  UNL1        0.0990
      5 C          59.8338   89.0820    8.4350 C.ar    1  UNL1        0.0237
      6 C          60.7131   88.2325    9.3039 C.ar    1  UNL1        0.0381
      7 C          63.3897   84.3285   10.6473 C.ar    1  UNL1        0.0230
      8 C          62.7095   84.8734   11.8682 C.ar    1  UNL1        0.0040
      9 C          61.6631   85.8497   11.4189 C.ar    1  UNL1        0.0067
     10 C          61.6965   85.9081    9.9204 C.ar    1  UNL1        0.0308
     11 S          62.7636   84.9680    9.4435 S.2     1  UNL1       -0.0899
     12 N          64.9388   82.6689   11.9107 N.3     1  UNL1       -0.3170
     13 C          64.5009   83.3209   10.6328 C.3     1  UNL1        0.0987
     14 H          65.6986   82.0166   11.7165 H       1  UNL1        0.1192
     15 H          64.1535   82.1638   12.3212 H       1  UNL1        0.1192
     16 C          61.4883   88.8579   10.4256 C.ar    1  UNL1        0.1456
     17 C          62.8551   89.4669   10.3205 C.ar    1  UNL1        0.0407
     18 C          63.2443   89.9695   11.6791 C.ar    1  UNL1        0.0438
     19 C          62.1181   89.6711   12.6240 C.ar    1  UNL1        0.1796
     20 O          61.0328   88.9841   11.8492 O.2     1  UNL1       -0.4504
@<TRIPOS>BOND
     1    12    13    1
     2    13     7    1
     3     7     8   ar
     4     8     9   ar
     5     9    10   ar
     6    10     1    1
     7     1     2   ar
     8     2     3   ar
     9     3     4   ar
    10     4     5   ar
    11     5     6   ar
    12     6    16    1
    13    16    17   ar
    14    17    18   ar
    15    18    19   ar
    16    19    20   ar
    17    10    11   ar
    18    11     7   ar
    19     6     1   ar
    20    20    16   ar
    21    12    14    1
    22    12    15    1
@<TRIPOS>MOLECULE
*****
 20 22 0 0 0
SMALL
GASTEIGER

@<TRIPOS>ATOM
      1 C          64.4913   91.3307   12.5331 C.ar    1  UNL1        0.0281
      2 C          64.4895   92.0393   11.2110 C.ar    1  UNL1        0.0994
      3 N          63.5012   91.6491   10.1524 N.ar    1  UNL1       -0.2423
      4 C          62.5145   90.5504   10.4158 C.ar    1  UNL1        0.0990
      5 C          62.5163   89.8418   11.7378 C.ar    1  UNL1        0.0237
      6 C          63.5046   90.2320   12.7965 C.ar    1  UNL1        0.0381
      7 C          67.5506   92.3115   14.7113 C.ar    1  UNL1        0.0230
      8 C          66.4506   92.3310   15.7310 C.ar    1  UNL1        0.0040
      9 C          65.1708   91.9660   15.0391 C.ar    1  UNL1        0.0067
     10 C          65.4797   91.7209   13.5919 C.ar    1  UNL1        0.0308
     11 S          66.9505   91.9344   13.3893 S.2     1  UNL1       -0.0899
     12 N          70.0361   92.2263   13.9594 N.3     1  UNL1       -0.3170
     13 C          68.9968   92.6156   14.9685 C.3     1  UNL1        0.0987
     14 H          70.9575   92.5073   14.2946 H       1  UNL1        0.1192
     15 H          69.8403   92.6914   13.0729 H       1  UNL1        0.1192
     16 C          63.5064   89.5235   14.1187 C.ar    1  UNL1        0.1456
     17 C          64.2731   88.2776   14.4503 C.ar    1  UNL1        0.0407
     18 C          63.9824   87.9206   15.8779 C.ar    1  UNL1        0.0438
     19 C          63.0359   88.9458   16.4286 C.ar    1  UNL1        0.1796
     20 O          62.7418   89.9364   15.3413 O.2     1  UNL1       -0.4504
@<TRIPOS>BOND
     1    12    13    1
     2    13     7    1
     3     7     8   ar
     4     8     9   ar
     5     9    10   ar
     6    10     1    1
     7     1     2   ar
     8     2     3   ar
     9     3     4   ar
    10     4     5   ar
    11     5     6   ar
    12     6    16    1
    13    16    17   ar
    14    17    18   ar
    15    18    19   ar
    16    19    20   ar
    17    10    11   ar
    18    11     7   ar
    19     6     1   ar
    20    20    16   ar
    21    12    14    1
    22    12    15    1
@<TRIPOS>MOLECULE
*****
 20 22 0 0 0
SMALL
GASTEIGER

@<TRIPOS>ATOM
      1 C          63.3600   82.6773   13.5563 C.ar    1  UNL1        0.0281
      2 C          63.5900   81.3278   14.1693 C.ar    1  UNL1        0.0994
      3 N          63.2826   80.0861   13.3860 N.ar    1  UNL1       -0.2423
      4 C          62.7452   80.1939   11.9897 C.ar    1  UNL1        0.0990
      5 C          62.5152   81.5434   11.3767 C.ar    1  UNL1        0.0237
      6 C          62.8226   82.7851   12.1600 C.ar    1  UNL1        0.0381
      7 C          63.5303   85.7155   15.9659 C.ar    1  UNL1        0.0230
      8 C          64.7504   85.9446   15.1239 C.ar    1  UNL1        0.0040
      9 C          64.8351   84.8344   14.1188 C.ar    1  UNL1        0.0067
     10 C          63.6673   83.9191   14.3396 C.ar    1  UNL1        0.0308
     11 S          62.8610   84.4637   15.4812 S.2     1  UNL1       -0.0899
     12 N          61.6205   86.5645   17.5092 N.3     1  UNL1       -0.3170
     13 C          63.0619   86.5855   17.0945 C.3     1  UNL1        0.0987
     14 H          61.4805   87.2116   18.2852 H       1  UNL1        0.1192
     15 H          61.3647   85.6216   17.8023 H       1  UNL1        0.1192
     16 C          62.5925   84.1348   11.5471 C.ar    1  UNL1        0.1456
     17 C          63.0046   84.5588   10.1685 C.ar    1  UNL1        0.0407
     18 C          62.5768   85.9834    9.9746 C.ar    1  UNL1        0.0438
     19 C          61.9003   86.4398   11.2332 C.ar    1  UNL1        0.1796
     20 O          61.9101   85.2972   12.2051 O.2     1  UNL1       -0.4504
@<TRIPOS>BOND
     1    12    13    1
     2    13     7    1
     3     7     8   ar
     4     8     9   ar
     5     9    10   ar
     6    10     1    1
     7     1     2   ar
     8     2     3   ar
     9     3     4   ar
    10     4     5   ar
    11     5     6   ar
    12     6    16    1
    13    16    17   ar
    14    17    18   ar
    15    18    19   ar
    16    19    20   ar
    17    10    11   ar
    18    11     7   ar
    19     6     1   ar
    20    20    16   ar
    21    12    14    1
    22    12    15    1
@<TRIPOS>MOLECULE
*****
 20 22 0 0 0
SMALL
GASTEIGER

@<TRIPOS>ATOM
      1 C          63.8203   91.1870   11.6435 C.ar    1  UNL1        0.0281
      2 C          64.2389   92.0083   10.4602 C.ar    1  UNL1        0.0994
      3 N          65.3718   92.9832   10.5869 N.ar    1  UNL1       -0.2423
      4 C          66.0861   93.1369   11.8969 C.ar    1  UNL1        0.0990
      5 C          65.6675   92.3156   13.0803 C.ar    1  UNL1        0.0237
      6 C          64.5346   91.3407   12.9535 C.ar    1  UNL1        0.0381
      7 C          60.4726   89.2232   11.6022 C.ar    1  UNL1        0.0230
      8 C          61.4156   88.2002   11.0416 C.ar    1  UNL1        0.0040
      9 C          62.7845   88.8114   10.9889 C.ar    1  UNL1        0.0067
     10 C          62.6874   90.2121   11.5169 C.ar    1  UNL1        0.0308
     11 S          61.2586   90.4666   11.8959 S.2     1  UNL1       -0.0899
     12 N          58.5002   88.5961   13.1728 N.3     1  UNL1       -0.3170
     13 C          59.0017   89.0357   11.8292 C.3     1  UNL1        0.0987
     14 H          57.4834   88.5204   13.1480 H       1  UNL1        0.1192
     15 H          58.7732   89.2805   13.8781 H       1  UNL1        0.1192
     16 C          64.1160   90.5194   14.1369 C.ar    1  UNL1        0.1456
     17 C          64.3430   89.0472   14.3131 C.ar    1  UNL1        0.0407
     18 C          63.7642   88.6440   15.6368 C.ar    1  UNL1        0.0438
     19 C          63.1794   89.8671   16.2789 C.ar    1  UNL1        0.1796
     20 O          63.3969   91.0261   15.3519 O.2     1  UNL1       -0.4504
@<TRIPOS>BOND
     1    12    13    1
     2    13     7    1
     3     7     8   ar
     4     8     9   ar
     5     9    10   ar
     6    10     1    1
     7     1     2   ar
     8     2     3   ar
     9     3     4   ar
    10     4     5   ar
    11     5     6   ar
    12     6    16    1
    13    16    17   ar
    14    17    18   ar
    15    18    19   ar
    16    19    20   ar
    17    10    11   ar
    18    11     7   ar
    19     6     1   ar
    20    20    16   ar
    21    12    14    1
    22    12    15    1
@<TRIPOS>MOLECULE
*****
 20 22 0 0 0
SMALL
GASTEIGER

@<TRIPOS>ATOM
      1 C          63.1083   86.2343   12.2818 C.ar    1  UNL1        0.0281
      2 C          63.2848   87.5311   13.0147 C.ar    1  UNL1        0.0994
      3 N          64.0379   87.5632   14.3114 N.ar    1  UNL1       -0.2423
      4 C          64.6146   86.2985   14.8754 C.ar    1  UNL1        0.0990
      5 C          64.4381   85.0017   14.1425 C.ar    1  UNL1        0.0237
      6 C          63.6850   84.9696   12.8457 C.ar    1  UNL1        0.0381
      7 C          60.6499   86.5648    9.2964 C.ar    1  UNL1        0.0230
      8 C          61.7424   85.7405    8.6823 C.ar    1  UNL1        0.0040
      9 C          62.7962   85.5164    9.7259 C.ar    1  UNL1        0.0067
     10 C          62.3551   86.2022   10.9850 C.ar    1  UNL1        0.0308
     11 S          61.0286   86.8501   10.7195 S.2     1  UNL1       -0.0899
     12 N          58.9141   86.3114    7.3799 N.3     1  UNL1       -0.3170
     13 C          59.3984   87.0233    8.6082 C.3     1  UNL1        0.0987
     14 H          58.0572   86.7530    7.0467 H       1  UNL1        0.1192
     15 H          58.7278   85.3341    7.6046 H       1  UNL1        0.1192
     16 C          63.5084   83.6728   12.1128 C.ar    1  UNL1        0.1456
     17 C          62.4897   82.6164   12.4228 C.ar    1  UNL1        0.0407
     18 C          62.6713   81.4954   11.4428 C.ar    1  UNL1        0.0438
     19 C          63.8024   81.8590   10.5270 C.ar    1  UNL1        0.1796
     20 O          64.3197   83.2047   10.9411 O.2     1  UNL1       -0.4504
@<TRIPOS>BOND
     1    12    13    1
     2    13     7    1
     3     7     8   ar
     4     8     9   ar
     5     9    10   ar
     6    10     1    1
     7     1     2   ar
     8     2     3   ar
     9     3     4   ar
    10     4     5   ar
    11     5     6   ar
    12     6    16    1
    13    16    17   ar
    14    17    18   ar
    15    18    19   ar
    16    19    20   ar
    17    10    11   ar
    18    11     7   ar
    19     6     1   ar
    20    20    16   ar
    21    12    14    1
    22    12    15    1
@<TRIPOS>MOLECULE
*****
 20 22 0 0 0
SMALL
GASTEIGER

@<TRIPOS>ATOM
      1 C          65.3899   91.9608   13.3652 C.ar    1  UNL1        0.0281
      2 C          64.9439   91.7293   14.7785 C.ar    1  UNL1        0.0994
      3 N          65.8415   92.1067   15.9195 N.ar    1  UNL1       -0.2423
      4 C          67.1850   92.7157   15.6471 C.ar    1  UNL1        0.0990
      5 C          67.6310   92.9472   14.2338 C.ar    1  UNL1        0.0237
      6 C          66.7334   92.5698   13.0928 C.ar    1  UNL1        0.0381
      7 C          62.7908   90.4753   10.8946 C.ar    1  UNL1        0.0230
      8 C          63.4316   91.5299   10.0417 C.ar    1  UNL1        0.0040
      9 C          64.4831   92.2147   10.8634 C.ar    1  UNL1        0.0067
     10 C          64.4923   91.5834   12.2241 C.ar    1  UNL1        0.0308
     11 S          63.4464   90.5084   12.2433 S.2     1  UNL1       -0.0899
     12 N          60.4435   90.1039    9.8448 N.3     1  UNL1       -0.3170
     13 C          61.6881   89.5501   10.4727 C.3     1  UNL1        0.0987
     14 H          59.8057   89.3395    9.6226 H       1  UNL1        0.1192
     15 H          60.6873   90.6028    8.9893 H       1  UNL1        0.1192
     16 C          67.1793   92.8013   11.6794 C.ar    1  UNL1        0.1456
     17 C          67.9365   91.8297   10.8234 C.ar    1  UNL1        0.0407
     18 C          68.1715   92.4730    9.4889 C.ar    1  UNL1        0.0438
     19 C          67.5596   93.8422    9.5201 C.ar    1  UNL1        0.1796
     20 O          66.9464   94.0450   10.8740 O.2     1  UNL1       -0.4504
@<TRIPOS>BOND
     1    12    13    1
     2    13     7    1
     3     7     8   ar
     4     8     9   ar
     5     9    10   ar
     6    10     1    1
     7     1     2   ar
     8     2     3   ar
     9     3     4   ar
    10     4     5   ar
    11     5     6   ar
    12     6    16    1
    13    16    17   ar
    14    17    18   ar
    15    18    19   ar
    16    19    20   ar
    17    10    11   ar
    18    11     7   ar
    19     6     1   ar
    20    20    16   ar
    21    12    14    1
    22    12    15    1
@<TRIPOS>MOLECULE
*****
 20 22 0 0 0
SMALL
GASTEIGER

@<TRIPOS>ATOM
      1 C          63.6758   86.0128   13.4374 C.ar    1  UNL1        0.0281
      2 C          64.4542   85.1836   14.4154 C.ar    1  UNL1        0.0994
      3 N          64.3956   83.6865   14.3428 N.ar    1  UNL1       -0.2423
      4 C          63.5588   83.0187   13.2923 C.ar    1  UNL1        0.0990
      5 C          62.7804   83.8479   12.3143 C.ar    1  UNL1        0.0237
      6 C          62.8389   85.3449   12.3869 C.ar    1  UNL1        0.0381
      7 C          64.0823   89.7697   14.3242 C.ar    1  UNL1        0.0230
      8 C          63.5663   89.8579   12.9184 C.ar    1  UNL1        0.0040
      9 C          63.3513   88.4613   12.4152 C.ar    1  UNL1        0.0067
     10 C          63.7343   87.5100   13.5098 C.ar    1  UNL1        0.0308
     11 S          64.1861   88.3186   14.6897 S.2     1  UNL1       -0.0899
     12 N          63.4687   91.3864   16.2632 N.3     1  UNL1       -0.3170
     13 C          64.4328   90.9290   15.2091 C.3     1  UNL1        0.0987
     14 H          63.8665   92.1790   16.7670 H       1  UNL1        0.1192
     15 H          63.2913   90.6230   16.9160 H       1  UNL1        0.1192
     16 C          62.0605   86.1742   11.4088 C.ar    1  UNL1        0.1456
     17 C          62.3730   86.3438    9.9516 C.ar    1  UNL1        0.0407
     18 C          61.3386   87.2539    9.3585 C.ar    1  UNL1        0.0438
     19 C          60.3868   87.6468   10.4493 C.ar    1  UNL1        0.1796
     20 O          60.8330   86.9795   11.7164 O.2     1  UNL1       -0.4504
@<TRIPOS>BOND
     1    12    13    1
     2    13     7    1
     3     7     8   ar
     4     8     9   ar
     5     9    10   ar
     6    10     1    1
     7     1     2   ar
     8     2     3   ar
     9     3     4   ar
    10     4     5   ar
    11     5     6   ar
    12     6    16    1
    13    16    17   ar
    14    17    18   ar
    15    18    19   ar
    16    19    20   ar
    17    10    11   ar
    18    11     7   ar
    19     6     1   ar
    20    20    16   ar
    21    12    14    1
    22    12    15    1
@<TRIPOS>MOLECULE
*****
 20 22 0 0 0
SMALL
GASTEIGER

@<TRIPOS>ATOM
      1 C          61.9690   86.7600   10.1665 C.ar    1  UNL1        0.0281
      2 C          62.5496   85.7030    9.2746 C.ar    1  UNL1        0.0994
      3 N          61.8589   85.3404    7.9934 N.ar    1  UNL1       -0.2423
      4 C          60.5877   86.0349    7.6041 C.ar    1  UNL1        0.0990
      5 C          60.0071   87.0919    8.4960 C.ar    1  UNL1        0.0237
      6 C          60.6977   87.4545    9.7771 C.ar    1  UNL1        0.0381
      7 C          63.7374   86.9572   13.6160 C.ar    1  UNL1        0.0230
      8 C          63.7075   88.4044   13.2225 C.ar    1  UNL1        0.0040
      9 C          63.0414   88.5066   11.8824 C.ar    1  UNL1        0.0067
     10 C          62.6597   87.1227   11.4477 C.ar    1  UNL1        0.0308
     11 S          63.0898   86.1651   12.5191 S.2     1  UNL1       -0.0899
     12 N          65.2707   85.2461   14.8291 N.3     1  UNL1       -0.3170
     13 C          64.3138   86.3999   14.8839 C.3     1  UNL1        0.0987
     14 H          65.5600   84.9992   15.7755 H       1  UNL1        0.1192
     15 H          66.0896   85.5093   14.2810 H       1  UNL1        0.1192
     16 C          60.1171   88.5116   10.6691 C.ar    1  UNL1        0.1456
     17 C          60.0430   89.9786   10.3650 C.ar    1  UNL1        0.0407
     18 C          59.3888   90.6609   11.5297 C.ar    1  UNL1        0.0438
     19 C          59.0586   89.6156   12.5536 C.ar    1  UNL1        0.1796
     20 O          59.5087   88.2873   12.0217 O.2     1  UNL1       -0.4504
@<TRIPOS>BOND
     1    12    13    1
     2    13     7    1
     3     7     8   ar
     4     8     9   ar
     5     9    10   ar
     6    10     1    1
     7     1     2   ar
     8     2     3   ar
     9     3     4   ar
    10     4     5   ar
    11     5     6   ar
    12     6    16    1
    13    16    17   ar
    14    17    18   ar
    15    18    19   ar
    16    19    20   ar
    17    10    11   ar
    18    11     7   ar
    19     6     1   ar
    20    20    16   ar
    21    12    14    1
    22    12    15    1
