@<TRIPOS>MOLECULE
*****
 38 44 0 0 0
SMALL
GASTEIGER

@<TRIPOS>ATOM
      1 N          63.5573   89.9996   17.4620 N.pl3   1  UNL1       -0.3414
      2 C          63.1884   88.5780   17.1567 C.ar    1  UNL1        0.1432
      3 N          62.4489   87.7601   18.1736 N.ar    1  UNL1       -0.2265
      4 C          62.0800   86.3386   17.8683 C.ar    1  UNL1        0.1193
      5 C          62.4508   85.7350   16.5461 C.ar    1  UNL1        0.1020
      6 N          63.1903   86.5529   15.5292 N.ar    1  UNL1       -0.2885
      7 C          63.5591   87.9744   15.8345 C.ar    1  UNL1        0.1141
      8 C          64.2828   88.5314   14.6445 C.ar    1  UNL1        0.1014
      9 N          64.3612   87.4541   13.6037 N.ar    1  UNL1       -0.2305
     10 C          63.6860   86.2313   14.1505 C.ar    1  UNL1        0.1239
     11 H          63.3140   90.3957   18.3298 H       1  UNL1        0.1438
     12 H          64.0427   90.5364   16.7946 H       1  UNL1        0.1438
     13 C          64.8317   89.9216   14.5176 C.ar    1  UNL1        0.0207
     14 C          65.3173   90.6503   15.7354 C.ar    1  UNL1        0.0016
     15 C          65.8662   92.0405   15.6084 C.ar    1  UNL1        0.0015
     16 C          65.9294   92.7019   14.2636 C.ar    1  UNL1        0.0177
     17 C          66.4782   94.0922   14.1367 C.ar    1  UNL1        0.0030
     18 C          66.5414   94.7537   12.7919 C.ar    1  UNL1        0.0191
     19 C          66.0557   94.0249   11.5741 C.ar    1  UNL1        0.0812
     20 N          65.5069   92.6348   11.7010 N.ar    1  UNL1       -0.2454
     21 C          65.4437   91.9733   13.0458 C.ar    1  UNL1        0.0813
     22 C          64.8949   90.5831   13.1728 C.ar    1  UNL1        0.0206
     23 C          66.1189   94.6864   10.2293 C.ar    1  UNL1        0.0176
     24 C          67.0122   94.1293    9.1607 C.ar    1  UNL1        0.0015
     25 C          67.0754   94.7908    7.8159 C.ar    1  UNL1        0.0000
     26 C          66.2453   96.0094    7.5397 C.ar    1  UNL1        0.0000
     27 C          65.3522   96.5664    8.6083 C.ar    1  UNL1        0.0000
     28 C          65.2890   95.9049    9.9531 C.ar    1  UNL1        0.0015
     29 C          63.5333   84.9176   13.4428 C.3     1  UNL1        0.0599
     30 C          62.6956   84.4177   12.3033 C.3     1  UNL1        0.0235
     31 C          63.3174   83.0597   12.4420 C.3     1  UNL1        0.0585
     32 C          64.1551   83.5596   13.5814 C.3     1  UNL1        0.0235
     33 N          63.1647   81.7460   11.7343 N.3     1  UNL1       -0.2697
     34 C          63.4502   81.6479   10.2650 C.3     1  UNL1        0.1046
     35 C          63.2975   80.3343    9.5573 C.3     1  UNL1        0.1595
     36 O          62.8593   79.1186   10.3189 O.3     1  UNL1       -0.3508
     37 C          62.5738   79.2166   11.7882 C.3     1  UNL1        0.1595
     38 C          62.7265   80.5303   12.4959 C.3     1  UNL1        0.1046
@<TRIPOS>BOND
     1     1     2    1
     2     2     3   ar
     3     3     4   ar
     4     4     5   ar
     5     5     6   ar
     6     6     7   ar
     7     7     8   ar
     8     8    13    1
     9    13    14   ar
    10    14    15   ar
    11    15    16   ar
    12    16    17   ar
    13    17    18   ar
    14    18    19   ar
    15    19    23    1
    16    23    24   ar
    17    24    25   ar
    18    25    26   ar
    19    26    27   ar
    20    27    28   ar
    21    19    20   ar
    22    20    21   ar
    23    21    22   ar
    24     8     9   ar
    25     9    10   ar
    26    29    10    1
    27    29    30    1
    28    30    31    1
    29    31    33    1
    30    33    34    1
    31    34    35    1
    32    35    36    1
    33    36    37    1
    34    37    38    1
    35    31    32    1
    36     7     2   ar
    37    22    13   ar
    38    32    29    1
    39    10     6   ar
    40    38    33    1
    41    21    16   ar
    42    28    23   ar
    43     1    11    1
    44     1    12    1
@<TRIPOS>MOLECULE
*****
 38 44 0 0 0
SMALL
GASTEIGER

@<TRIPOS>ATOM
      1 N          61.3515   90.4627   10.3232 N.pl3   1  UNL1       -0.3414
      2 C          61.0160   89.0090   10.1680 C.ar    1  UNL1        0.1432
      3 N          59.8651   88.5934    9.3004 N.ar    1  UNL1       -0.2265
      4 C          59.5296   87.1397    9.1451 C.ar    1  UNL1        0.1193
      5 C          60.3451   86.1016    9.8575 C.ar    1  UNL1        0.1020
      6 N          61.4959   86.5172   10.7251 N.ar    1  UNL1       -0.2885
      7 C          61.8314   87.9709   10.8803 C.ar    1  UNL1        0.1141
      8 C          63.0147   88.0784   11.7958 C.ar    1  UNL1        0.1014
      9 N          63.4106   86.6911   12.2064 N.ar    1  UNL1       -0.2305
     10 C          62.4720   85.7262   11.5447 C.ar    1  UNL1        0.1239
     11 H          60.8163   91.1441    9.8557 H       1  UNL1        0.1438
     12 H          62.1068   90.7355   10.8927 H       1  UNL1        0.1438
     13 C          63.6846   89.3500   12.2253 C.ar    1  UNL1        0.0207
     14 C          63.8997   89.6289   13.6834 C.ar    1  UNL1        0.0016
     15 C          64.5695   90.9005   14.1128 C.ar    1  UNL1        0.0015
     16 C          65.0243   91.8931   13.0842 C.ar    1  UNL1        0.0177
     17 C          65.6941   93.1647   13.5137 C.ar    1  UNL1        0.0030
     18 C          66.1489   94.1572   12.4851 C.ar    1  UNL1        0.0191
     19 C          65.9338   93.8782   11.0270 C.ar    1  UNL1        0.0812
     20 N          65.2639   92.6067   10.5976 N.ar    1  UNL1       -0.2454
     21 C          64.8092   91.6141   11.6262 C.ar    1  UNL1        0.0813
     22 C          64.1394   90.3426   11.1968 C.ar    1  UNL1        0.0206
     23 C          66.3885   94.8708    9.9985 C.ar    1  UNL1        0.0176
     24 C          67.8160   94.8728    9.5377 C.ar    1  UNL1        0.0015
     25 C          68.2708   95.8653    8.5092 C.ar    1  UNL1        0.0000
     26 C          67.2980   96.8560    7.9413 C.ar    1  UNL1        0.0000
     27 C          65.8705   96.8540    8.4020 C.ar    1  UNL1        0.0000
     28 C          65.4158   95.8614    9.4306 C.ar    1  UNL1        0.0015
     29 C          62.5037   84.2325   11.6789 C.3     1  UNL1        0.0599
     30 C          62.6293   83.0840   10.7223 C.3     1  UNL1        0.0235
     31 C          62.5486   82.1202   11.8688 C.3     1  UNL1        0.0585
     32 C          62.4231   83.2687   12.8255 C.3     1  UNL1        0.0235
     33 N          62.5804   80.6265   12.0031 N.3     1  UNL1       -0.2697
     34 C          62.7982   79.7691   10.7918 C.3     1  UNL1        0.1046
     35 C          62.8300   78.2755   10.9260 C.3     1  UNL1        0.1595
     36 O          62.6440   77.6393   12.2716 O.3     1  UNL1       -0.3508
     37 C          62.4262   78.4968   13.4829 C.3     1  UNL1        0.1595
     38 C          62.3944   79.9904   13.3487 C.3     1  UNL1        0.1046
@<TRIPOS>BOND
     1     1     2    1
     2     2     3   ar
     3     3     4   ar
     4     4     5   ar
     5     5     6   ar
     6     6     7   ar
     7     7     8   ar
     8     8    13    1
     9    13    14   ar
    10    14    15   ar
    11    15    16   ar
    12    16    17   ar
    13    17    18   ar
    14    18    19   ar
    15    19    23    1
    16    23    24   ar
    17    24    25   ar
    18    25    26   ar
    19    26    27   ar
    20    27    28   ar
    21    19    20   ar
    22    20    21   ar
    23    21    22   ar
    24     8     9   ar
    25     9    10   ar
    26    29    10    1
    27    29    30    1
    28    30    31    1
    29    31    33    1
    30    33    34    1
    31    34    35    1
    32    35    36    1
    33    36    37    1
    34    37    38    1
    35    31    32    1
    36     7     2   ar
    37    22    13   ar
    38    32    29    1
    39    10     6   ar
    40    38    33    1
    41    21    16   ar
    42    28    23   ar
    43     1    11    1
    44     1    12    1
@<TRIPOS>MOLECULE
*****
 38 44 0 0 0
SMALL
GASTEIGER

@<TRIPOS>ATOM
      1 N          59.9098   86.9056   12.4626 N.pl3   1  UNL1       -0.3414
      2 C          60.2685   88.2600   11.9270 C.ar    1  UNL1        0.1432
      3 N          59.2039   89.1429   11.3464 N.ar    1  UNL1       -0.2265
      4 C          59.5626   90.4973   10.8108 C.ar    1  UNL1        0.1193
      5 C          60.9859   90.9687   10.8558 C.ar    1  UNL1        0.1020
      6 N          62.0504   90.0858   11.4364 N.ar    1  UNL1       -0.2885
      7 C          61.6917   88.7314   11.9720 C.ar    1  UNL1        0.1141
      8 C          62.9469   88.0869   12.4810 C.ar    1  UNL1        0.1014
      9 N          64.0814   89.0430   12.2600 N.ar    1  UNL1       -0.2305
     10 C          63.5273   90.2784   11.6144 C.ar    1  UNL1        0.1239
     11 H          58.9756   86.5961   12.4331 H       1  UNL1        0.1438
     12 H          60.6085   86.3261   12.8437 H       1  UNL1        0.1438
     13 C          63.0496   86.7253   13.1021 C.ar    1  UNL1        0.0207
     14 C          63.2769   86.5896   14.5785 C.ar    1  UNL1        0.0016
     15 C          63.3795   85.2281   15.1994 C.ar    1  UNL1        0.0015
     16 C          63.2549   84.0023   14.3440 C.ar    1  UNL1        0.0177
     17 C          63.3575   82.6407   14.9650 C.ar    1  UNL1        0.0030
     18 C          63.2329   81.4148   14.1096 C.ar    1  UNL1        0.0191
     19 C          63.0056   81.5506   12.6331 C.ar    1  UNL1        0.0812
     20 N          62.9029   82.9122   12.0121 N.ar    1  UNL1       -0.2454
     21 C          63.0276   84.1380   12.8676 C.ar    1  UNL1        0.0813
     22 C          62.9249   85.4995   12.2466 C.ar    1  UNL1        0.0206
     23 C          62.8809   80.3248   11.7776 C.ar    1  UNL1        0.0176
     24 C          62.5802   78.9974   12.4083 C.ar    1  UNL1        0.0015
     25 C          62.4556   77.7716   11.5529 C.ar    1  UNL1        0.0000
     26 C          62.6316   77.8731   10.0667 C.ar    1  UNL1        0.0000
     27 C          62.9323   79.2005    9.4360 C.ar    1  UNL1        0.0000
     28 C          63.0569   80.4263   10.2914 C.ar    1  UNL1        0.0015
     29 C          64.3124   91.4931   11.2166 C.3     1  UNL1        0.0599
     30 C          64.3367   92.3947   10.0181 C.3     1  UNL1        0.0235
     31 C          65.4226   93.2110   10.6541 C.3     1  UNL1        0.0585
     32 C          65.3983   92.3094   11.8527 C.3     1  UNL1        0.0235
     33 N          66.2076   94.4257   10.2563 N.3     1  UNL1       -0.2697
     34 C          66.2054   95.6411   11.1353 C.3     1  UNL1        0.1046
     35 C          66.9904   96.8558   10.7376 C.3     1  UNL1        0.1595
     36 O          67.7776   96.8550    9.4608 O.3     1  UNL1       -0.3508
     37 C          67.7799   95.6396    8.5818 C.3     1  UNL1        0.1595
     38 C          66.9948   94.4249    8.9796 C.3     1  UNL1        0.1046
@<TRIPOS>BOND
     1     1     2    1
     2     2     3   ar
     3     3     4   ar
     4     4     5   ar
     5     5     6   ar
     6     6     7   ar
     7     7     8   ar
     8     8    13    1
     9    13    14   ar
    10    14    15   ar
    11    15    16   ar
    12    16    17   ar
    13    17    18   ar
    14    18    19   ar
    15    19    23    1
    16    23    24   ar
    17    24    25   ar
    18    25    26   ar
    19    26    27   ar
    20    27    28   ar
    21    19    20   ar
    22    20    21   ar
    23    21    22   ar
    24     8     9   ar
    25     9    10   ar
    26    29    10    1
    27    29    30    1
    28    30    31    1
    29    31    33    1
    30    33    34    1
    31    34    35    1
    32    35    36    1
    33    36    37    1
    34    37    38    1
    35    31    32    1
    36     7     2   ar
    37    22    13   ar
    38    32    29    1
    39    10     6   ar
    40    38    33    1
    41    21    16   ar
    42    28    23   ar
    43     1    11    1
    44     1    12    1
@<TRIPOS>MOLECULE
*****
 38 44 0 0 0
SMALL
GASTEIGER

@<TRIPOS>ATOM
      1 N          59.7340   86.8265    7.5725 N.pl3   1  UNL1       -0.3414
      2 C          60.6174   86.8729    8.7839 C.ar    1  UNL1        0.1432
      3 N          60.9768   85.6043    9.4991 N.ar    1  UNL1       -0.2265
      4 C          61.8602   85.6507   10.7104 C.ar    1  UNL1        0.1193
      5 C          62.3841   86.9658   11.2066 C.ar    1  UNL1        0.1020
      6 N          62.0247   88.2343   10.4915 N.ar    1  UNL1       -0.2885
      7 C          61.1413   88.1879    9.2801 C.ar    1  UNL1        0.1141
      8 C          60.9586   89.5922    8.7856 C.ar    1  UNL1        0.1014
      9 N          61.7291   90.5065    9.6913 N.ar    1  UNL1       -0.2305
     10 C          62.3880   89.6673   10.7456 C.ar    1  UNL1        0.1239
     11 H          59.3901   85.9634    7.2468 H       1  UNL1        0.1438
     12 H          59.4981   87.6591    7.1032 H       1  UNL1        0.1438
     13 C          60.1478   90.0090    7.5944 C.ar    1  UNL1        0.0207
     14 C          58.7085   89.6006    7.4868 C.ar    1  UNL1        0.0016
     15 C          57.8977   90.0174    6.2956 C.ar    1  UNL1        0.0015
     16 C          58.5262   90.8425    5.2120 C.ar    1  UNL1        0.0177
     17 C          57.7154   91.2593    4.0208 C.ar    1  UNL1        0.0030
     18 C          58.3439   92.0844    2.9373 C.ar    1  UNL1        0.0191
     19 C          59.7833   92.4928    3.0449 C.ar    1  UNL1        0.0812
     20 N          60.5941   92.0760    4.2361 N.ar    1  UNL1       -0.2454
     21 C          59.9655   91.2509    5.3196 C.ar    1  UNL1        0.0813
     22 C          60.7763   90.8341    6.5108 C.ar    1  UNL1        0.0206
     23 C          60.4118   93.3179    1.9614 C.ar    1  UNL1        0.0176
     24 C          61.0469   92.6462    0.7800 C.ar    1  UNL1        0.0015
     25 C          61.6754   93.4714   -0.3036 C.ar    1  UNL1        0.0000
     26 C          61.6689   94.9682   -0.2058 C.ar    1  UNL1        0.0000
     27 C          61.0338   95.6398    0.9756 C.ar    1  UNL1        0.0000
     28 C          60.4053   94.8147    2.0591 C.ar    1  UNL1        0.0015
     29 C          63.2575   90.1724   11.8587 C.3     1  UNL1        0.0599
     30 C          63.6935   89.6372   13.1904 C.3     1  UNL1        0.0235
     31 C          64.4871   90.8868   13.4327 C.3     1  UNL1        0.0585
     32 C          64.0511   91.4220   12.1010 C.3     1  UNL1        0.0235
     33 N          65.3567   91.3919   14.5458 N.3     1  UNL1       -0.2697
     34 C          64.7344   91.8927   15.8154 C.3     1  UNL1        0.1046
     35 C          65.6038   92.3978   16.9283 C.3     1  UNL1        0.1595
     36 O          67.0956   92.4021   16.7718 O.3     1  UNL1       -0.3508
     37 C          67.7179   91.9013   15.5022 C.3     1  UNL1        0.1595
     38 C          66.8484   91.3962   14.3891 C.3     1  UNL1        0.1046
@<TRIPOS>BOND
     1     1     2    1
     2     2     3   ar
     3     3     4   ar
     4     4     5   ar
     5     5     6   ar
     6     6     7   ar
     7     7     8   ar
     8     8    13    1
     9    13    14   ar
    10    14    15   ar
    11    15    16   ar
    12    16    17   ar
    13    17    18   ar
    14    18    19   ar
    15    19    23    1
    16    23    24   ar
    17    24    25   ar
    18    25    26   ar
    19    26    27   ar
    20    27    28   ar
    21    19    20   ar
    22    20    21   ar
    23    21    22   ar
    24     8     9   ar
    25     9    10   ar
    26    29    10    1
    27    29    30    1
    28    30    31    1
    29    31    33    1
    30    33    34    1
    31    34    35    1
    32    35    36    1
    33    36    37    1
    34    37    38    1
    35    31    32    1
    36     7     2   ar
    37    22    13   ar
    38    32    29    1
    39    10     6   ar
    40    38    33    1
    41    21    16   ar
    42    28    23   ar
    43     1    11    1
    44     1    12    1
@<TRIPOS>MOLECULE
*****
 38 44 0 0 0
SMALL
GASTEIGER

@<TRIPOS>ATOM
      1 N          56.9097   89.0778    7.1992 N.pl3   1  UNL1       -0.3414
      2 C          57.0446   90.1059    6.1153 C.ar    1  UNL1        0.1432
      3 N          55.8192   90.7365    5.5231 N.ar    1  UNL1       -0.2265
      4 C          55.9541   91.7646    4.4392 C.ar    1  UNL1        0.1193
      5 C          57.3145   92.1620    3.9476 C.ar    1  UNL1        0.1020
      6 N          58.5398   91.5314    4.5398 N.ar    1  UNL1       -0.2885
      7 C          58.4049   90.5033    5.6237 C.ar    1  UNL1        0.1141
      8 C          59.7830   90.0576    6.0139 C.ar    1  UNL1        0.1014
      9 N          60.7695   90.8102    5.1712 N.ar    1  UNL1       -0.2305
     10 C          60.0013   91.7211    4.2602 C.ar    1  UNL1        0.1239
     11 H          56.0170   88.8169    7.5219 H       1  UNL1        0.1438
     12 H          57.7140   88.6639    7.5879 H       1  UNL1        0.1438
     13 C          60.1159   89.0382    7.0628 C.ar    1  UNL1        0.0207
     14 C          59.6441   87.6227    6.9094 C.ar    1  UNL1        0.0016
     15 C          59.9771   86.6033    7.9582 C.ar    1  UNL1        0.0015
     16 C          60.7819   86.9995    9.1604 C.ar    1  UNL1        0.0177
     17 C          61.1149   85.9801   10.2092 C.ar    1  UNL1        0.0030
     18 C          61.9197   86.3763   11.4114 C.ar    1  UNL1        0.0191
     19 C          62.3916   87.7919   11.5648 C.ar    1  UNL1        0.0812
     20 N          62.0586   88.8113   10.5160 N.ar    1  UNL1       -0.2454
     21 C          61.2538   88.4151    9.3138 C.ar    1  UNL1        0.0813
     22 C          60.9208   89.4344    8.2650 C.ar    1  UNL1        0.0206
     23 C          63.1965   88.1881   12.7669 C.ar    1  UNL1        0.0176
     24 C          63.7439   87.1344   13.6835 C.ar    1  UNL1        0.0015
     25 C          64.5487   87.5306   14.8857 C.ar    1  UNL1        0.0000
     26 C          64.8062   88.9806   15.1713 C.ar    1  UNL1        0.0000
     27 C          64.2588   90.0342   14.2547 C.ar    1  UNL1        0.0000
     28 C          63.4539   89.6380   13.0526 C.ar    1  UNL1        0.0015
     29 C          60.5909   92.6573    3.2473 C.3     1  UNL1        0.0599
     30 C          61.8807   92.7187    2.4841 C.3     1  UNL1        0.0235
     31 C          61.4247   93.9812    1.8149 C.3     1  UNL1        0.0585
     32 C          60.1348   93.9199    2.5781 C.3     1  UNL1        0.0235
     33 N          62.0143   94.9174    0.8020 N.3     1  UNL1       -0.2697
     34 C          63.0657   95.9042    1.2153 C.3     1  UNL1        0.1046
     35 C          63.6553   96.8403    0.2025 C.3     1  UNL1        0.1595
     36 O          63.1935   96.7897   -1.2237 O.3     1  UNL1       -0.3508
     37 C          62.1422   95.8030   -1.6371 C.3     1  UNL1        0.1595
     38 C          61.5526   94.8668   -0.6242 C.3     1  UNL1        0.1046
@<TRIPOS>BOND
     1     1     2    1
     2     2     3   ar
     3     3     4   ar
     4     4     5   ar
     5     5     6   ar
     6     6     7   ar
     7     7     8   ar
     8     8    13    1
     9    13    14   ar
    10    14    15   ar
    11    15    16   ar
    12    16    17   ar
    13    17    18   ar
    14    18    19   ar
    15    19    23    1
    16    23    24   ar
    17    24    25   ar
    18    25    26   ar
    19    26    27   ar
    20    27    28   ar
    21    19    20   ar
    22    20    21   ar
    23    21    22   ar
    24     8     9   ar
    25     9    10   ar
    26    29    10    1
    27    29    30    1
    28    30    31    1
    29    31    33    1
    30    33    34    1
    31    34    35    1
    32    35    36    1
    33    36    37    1
    34    37    38    1
    35    31    32    1
    36     7     2   ar
    37    22    13   ar
    38    32    29    1
    39    10     6   ar
    40    38    33    1
    41    21    16   ar
    42    28    23   ar
    43     1    11    1
    44     1    12    1
