@<TRIPOS>MOLECULE
*****
 22 24 0 0 0
SMALL
GASTEIGER

@<TRIPOS>ATOM
      1 N          62.7549   85.5189   13.0321 N.pl3   1  UNL1       -0.3133
      2 H          62.3383   85.6761   13.9102 H       1  UNL1        0.1485
      3 C          62.3700   86.3675   11.8566 C.ar    1  UNL1        0.1450
      4 N          61.6196   85.7615   10.7079 N.ar    1  UNL1       -0.2263
      5 C          61.2347   86.6101    9.5324 C.ar    1  UNL1        0.1193
      6 C          61.6003   88.0646    9.5057 C.ar    1  UNL1        0.1008
      7 N          62.3507   88.6706   10.6544 N.ar    1  UNL1       -0.3053
      8 C          62.8446   90.0642   10.9072 C.ar    1  UNL1        0.0380
      9 C          62.6776   91.2388    9.9894 C.3     1  UNL1        0.0500
     10 C          63.5347   90.0769   12.2390 C.ar    1  UNL1       -0.0083
     11 C          64.1791   91.2666   12.8867 C.3     1  UNL1        0.0323
     12 C          63.4674   88.6912   12.8092 C.ar    1  UNL1        0.0172
     13 C          62.7356   87.8220   11.8298 C.ar    1  UNL1        0.0951
     14 C          63.7746   84.4309   12.8698 C.3     1  UNL1        0.1148
     15 C          64.0118   82.9353   10.2801 C.3     1  UNL1        0.0307
     16 C          63.4552   82.2508   11.4932 C.ar    1  UNL1       -0.0245
     17 C          63.0171   80.8185   11.4115 C.ar    1  UNL1       -0.0045
     18 C          62.4606   80.1340   12.6246 C.ar    1  UNL1       -0.0007
     19 C          62.3420   80.8818   13.9195 C.ar    1  UNL1       -0.0045
     20 C          62.7800   82.3141   14.0012 C.ar    1  UNL1       -0.0245
     21 C          62.6615   83.0619   15.2961 C.3     1  UNL1        0.0307
     22 C          63.3366   82.9986   12.7881 C.ar    1  UNL1       -0.0105
@<TRIPOS>BOND
     1    15    16    1
     2    16    17   ar
     3    17    18   ar
     4    18    19   ar
     5    19    20   ar
     6    20    21    1
     7    20    22   ar
     8    22    14    1
     9    14     1    1
    10     1     3    1
    11     3     4   ar
    12     4     5   ar
    13     5     6   ar
    14     6     7   ar
    15     7     8   ar
    16     8     9    1
    17     8    10   ar
    18    10    11    1
    19    10    12   ar
    20    12    13   ar
    21    22    16   ar
    22    13     3   ar
    23    13     7   ar
    24     1     2    1
@<TRIPOS>MOLECULE
*****
 22 24 0 0 0
SMALL
GASTEIGER

@<TRIPOS>ATOM
      1 N          61.8800   89.2499   12.3248 N.pl3   1  UNL1       -0.3133
      2 H          60.9077   89.3777   12.4122 H       1  UNL1        0.1485
      3 C          62.8141   89.9181   13.2897 C.ar    1  UNL1        0.1450
      4 N          62.7439   89.5893   14.7515 N.ar    1  UNL1       -0.2263
      5 C          63.6780   90.2576   15.7162 C.ar    1  UNL1        0.1193
      6 C          64.6824   91.2547   15.2192 C.ar    1  UNL1        0.1008
      7 N          64.7526   91.5835   13.7574 N.ar    1  UNL1       -0.3053
      8 C          65.6313   92.5180   12.9799 C.ar    1  UNL1        0.0380
      9 C          66.7115   93.3901   13.5479 C.3     1  UNL1        0.0500
     10 C          65.2403   92.4273   11.5346 C.ar    1  UNL1       -0.0083
     11 C          65.8608   93.1928   10.4036 C.3     1  UNL1        0.0323
     12 C          64.1199   91.4367   11.4188 C.ar    1  UNL1        0.0172
     13 C          63.8185   90.9152   12.7926 C.ar    1  UNL1        0.0951
     14 C          62.4272   88.3868   11.2268 C.3     1  UNL1        0.1148
     15 C          62.3795   85.4894   10.4503 C.3     1  UNL1        0.0307
     16 C          61.5044   86.4730    9.7315 C.ar    1  UNL1       -0.0245
     17 C          60.6054   86.0080    8.6244 C.ar    1  UNL1       -0.0045
     18 C          59.7303   86.9916    7.9057 C.ar    1  UNL1       -0.0007
     19 C          59.7541   88.4402    8.2939 C.ar    1  UNL1       -0.0045
     20 C          60.6531   88.9053    9.4010 C.ar    1  UNL1       -0.0245
     21 C          60.6769   90.3540    9.7892 C.3     1  UNL1        0.0307
     22 C          61.5282   87.9217   10.1198 C.ar    1  UNL1       -0.0105
@<TRIPOS>BOND
     1    15    16    1
     2    16    17   ar
     3    17    18   ar
     4    18    19   ar
     5    19    20   ar
     6    20    21    1
     7    20    22   ar
     8    22    14    1
     9    14     1    1
    10     1     3    1
    11     3     4   ar
    12     4     5   ar
    13     5     6   ar
    14     6     7   ar
    15     7     8   ar
    16     8     9    1
    17     8    10   ar
    18    10    11    1
    19    10    12   ar
    20    12    13   ar
    21    22    16   ar
    22    13     3   ar
    23    13     7   ar
    24     1     2    1
@<TRIPOS>MOLECULE
*****
 22 24 0 0 0
SMALL
GASTEIGER

@<TRIPOS>ATOM
      1 N          62.7631   89.5329   11.1569 N.pl3   1  UNL1       -0.3133
      2 H          62.7446   90.1055   10.3563 H       1  UNL1        0.1485
      3 C          63.4257   90.0192   12.4117 C.ar    1  UNL1        0.1450
      4 N          63.1680   89.3219   13.7145 N.ar    1  UNL1       -0.2263
      5 C          63.8306   89.8083   14.9693 C.ar    1  UNL1        0.1193
      6 C          64.7509   90.9918   14.9212 C.ar    1  UNL1        0.1008
      7 N          65.0085   91.6891   13.6183 N.ar    1  UNL1       -0.3053
      8 C          65.8600   92.8721   13.2643 C.ar    1  UNL1        0.0380
      9 C          66.7003   93.6702   14.2166 C.3     1  UNL1        0.0500
     10 C          65.7237   93.1169   11.7906 C.ar    1  UNL1       -0.0083
     11 C          66.4038   94.2029   11.0107 C.3     1  UNL1        0.0323
     12 C          64.7879   92.0852   11.2340 C.ar    1  UNL1        0.0172
     13 C          64.3459   91.2028   12.3636 C.ar    1  UNL1        0.0951
     14 C          62.1286   88.1741   11.1220 C.3     1  UNL1        0.1148
     15 C          60.0481   90.0440   10.0380 C.3     1  UNL1        0.0307
     16 C          60.2537   88.7011    9.4023 C.ar    1  UNL1       -0.0245
     17 C          59.4191   88.2930    8.2246 C.ar    1  UNL1       -0.0045
     18 C          59.6248   86.9501    7.5889 C.ar    1  UNL1       -0.0007
     19 C          60.6650   86.0151    8.1309 C.ar    1  UNL1       -0.0045
     20 C          61.4996   86.4231    9.3086 C.ar    1  UNL1       -0.0245
     21 C          62.5398   85.4881    9.8506 C.3     1  UNL1        0.0307
     22 C          61.2940   87.7661    9.9443 C.ar    1  UNL1       -0.0105
@<TRIPOS>BOND
     1    15    16    1
     2    16    17   ar
     3    17    18   ar
     4    18    19   ar
     5    19    20   ar
     6    20    21    1
     7    20    22   ar
     8    22    14    1
     9    14     1    1
    10     1     3    1
    11     3     4   ar
    12     4     5   ar
    13     5     6   ar
    14     6     7   ar
    15     7     8   ar
    16     8     9    1
    17     8    10   ar
    18    10    11    1
    19    10    12   ar
    20    12    13   ar
    21    22    16   ar
    22    13     3   ar
    23    13     7   ar
    24     1     2    1
@<TRIPOS>MOLECULE
*****
 22 24 0 0 0
SMALL
GASTEIGER

@<TRIPOS>ATOM
      1 N          63.5567   88.7359   13.0707 N.pl3   1  UNL1       -0.3133
      2 H          64.1849   88.5266   13.7992 H       1  UNL1        0.1485
      3 C          63.0139   87.6347   12.2088 C.ar    1  UNL1        0.1450
      4 N          62.3257   87.9632   10.9171 N.ar    1  UNL1       -0.2263
      5 C          61.7830   86.8620   10.0553 C.ar    1  UNL1        0.1193
      6 C          61.9284   85.4323   10.4851 C.ar    1  UNL1        0.1008
      7 N          62.6166   85.1038   11.7768 N.ar    1  UNL1       -0.3053
      8 C          62.9067   83.7981   12.4557 C.ar    1  UNL1        0.0380
      9 C          62.5392   82.4371   11.9432 C.3     1  UNL1        0.0500
     10 C          63.6287   84.0923   13.7372 C.ar    1  UNL1       -0.0083
     11 C          64.1100   83.0771   14.7312 C.3     1  UNL1        0.0323
     12 C          63.7849   85.5798   13.8503 C.ar    1  UNL1        0.0172
     13 C          63.1594   86.2050   12.6386 C.ar    1  UNL1        0.0951
     14 C          63.1423   90.1560   12.8225 C.3     1  UNL1        0.1148
     15 C          65.1741   91.0693   14.8319 C.3     1  UNL1        0.0307
     16 C          65.1843   91.6373   13.4436 C.ar    1  UNL1       -0.0245
     17 C          66.2105   92.6620   13.0600 C.ar    1  UNL1       -0.0045
     18 C          66.2206   93.2299   11.6717 C.ar    1  UNL1       -0.0007
     19 C          65.2047   92.7733   10.6671 C.ar    1  UNL1       -0.0045
     20 C          64.1786   91.7486   11.0507 C.ar    1  UNL1       -0.0245
     21 C          63.1627   91.2920   10.0460 C.3     1  UNL1        0.0307
     22 C          64.1684   91.1806   12.4390 C.ar    1  UNL1       -0.0105
@<TRIPOS>BOND
     1    15    16    1
     2    16    17   ar
     3    17    18   ar
     4    18    19   ar
     5    19    20   ar
     6    20    21    1
     7    20    22   ar
     8    22    14    1
     9    14     1    1
    10     1     3    1
    11     3     4   ar
    12     4     5   ar
    13     5     6   ar
    14     6     7   ar
    15     7     8   ar
    16     8     9    1
    17     8    10   ar
    18    10    11    1
    19    10    12   ar
    20    12    13   ar
    21    22    16   ar
    22    13     3   ar
    23    13     7   ar
    24     1     2    1
@<TRIPOS>MOLECULE
*****
 22 24 0 0 0
SMALL
GASTEIGER

@<TRIPOS>ATOM
      1 N          62.2557   88.2705   11.5175 N.pl3   1  UNL1       -0.3133
      2 H          61.5358   88.9091   11.7251 H       1  UNL1        0.1485
      3 C          63.0326   87.6288   12.6287 C.ar    1  UNL1        0.1450
      4 N          63.7640   88.4818   13.6224 N.ar    1  UNL1       -0.2263
      5 C          64.5408   87.8401   14.7336 C.ar    1  UNL1        0.1193
      6 C          64.5863   86.3454   14.8511 C.ar    1  UNL1        0.1008
      7 N          63.8549   85.4924   13.8574 N.ar    1  UNL1       -0.3053
      8 C          63.7183   84.0050   13.7196 C.ar    1  UNL1        0.0380
      9 C          64.3347   82.9759   14.6201 C.3     1  UNL1        0.0500
     10 C          62.8570   83.7274   12.5233 C.ar    1  UNL1       -0.0083
     11 C          62.4610   82.3719   12.0174 C.3     1  UNL1        0.0323
     12 C          62.4613   85.0432   11.9217 C.ar    1  UNL1        0.0172
     13 C          63.0781   86.1341   12.7462 C.ar    1  UNL1        0.0951
     14 C          62.5758   87.9391   10.0900 C.3     1  UNL1        0.1148
     15 C          60.0855   89.5686    9.7116 C.3     1  UNL1        0.0307
     16 C          60.2485   88.2676    8.9830 C.ar    1  UNL1       -0.0245
     17 C          59.1663   87.7814    8.0651 C.ar    1  UNL1       -0.0045
     18 C          59.3292   86.4804    7.3364 C.ar    1  UNL1       -0.0007
     19 C          60.5744   85.6657    7.5256 C.ar    1  UNL1       -0.0045
     20 C          61.6565   86.1519    8.4435 C.ar    1  UNL1       -0.0245
     21 C          62.9017   85.3371    8.6327 C.3     1  UNL1        0.0307
     22 C          61.4936   87.4529    9.1722 C.ar    1  UNL1       -0.0105
@<TRIPOS>BOND
     1    15    16    1
     2    16    17   ar
     3    17    18   ar
     4    18    19   ar
     5    19    20   ar
     6    20    21    1
     7    20    22   ar
     8    22    14    1
     9    14     1    1
    10     1     3    1
    11     3     4   ar
    12     4     5   ar
    13     5     6   ar
    14     6     7   ar
    15     7     8   ar
    16     8     9    1
    17     8    10   ar
    18    10    11    1
    19    10    12   ar
    20    12    13   ar
    21    22    16   ar
    22    13     3   ar
    23    13     7   ar
    24     1     2    1
@<TRIPOS>MOLECULE
*****
 22 24 0 0 0
SMALL
GASTEIGER

@<TRIPOS>ATOM
      1 N          62.9666   84.8030   10.4979 N.pl3   1  UNL1       -0.3133
      2 H          63.4421   84.2885    9.8063 H       1  UNL1        0.1485
      3 C          62.0051   85.8837   10.1005 C.ar    1  UNL1        0.1450
      4 N          60.9770   85.6202    9.0406 N.ar    1  UNL1       -0.2263
      5 C          60.0156   86.7007    8.6432 C.ar    1  UNL1        0.1193
      6 C          60.0823   88.0448    9.3058 C.ar    1  UNL1        0.1008
      7 N          61.1104   88.3083   10.3657 N.ar    1  UNL1       -0.3053
      8 C          61.4145   89.5249   11.1887 C.ar    1  UNL1        0.0380
      9 C          60.6954   90.8394   11.1181 C.3     1  UNL1        0.0500
     10 C          62.5639   89.1962   12.0948 C.ar    1  UNL1       -0.0083
     11 C          63.1960   90.1244   13.0893 C.3     1  UNL1        0.0323
     12 C          62.9702   87.7765   11.8317 C.ar    1  UNL1        0.0172
     13 C          62.0718   87.2277   10.7631 C.ar    1  UNL1        0.0951
     14 C          63.2036   84.5065   11.9491 C.3     1  UNL1        0.1148
     15 C          62.0367   84.2408   14.7000 C.3     1  UNL1        0.0307
     16 C          62.2985   83.0159   13.8749 C.ar    1  UNL1       -0.0245
     17 C          61.9767   81.6580   14.4252 C.ar    1  UNL1       -0.0045
     18 C          62.2385   80.4331   13.6000 C.ar    1  UNL1       -0.0007
     19 C          62.8219   80.5659   12.2245 C.ar    1  UNL1       -0.0045
     20 C          63.1437   81.9237   11.6742 C.ar    1  UNL1       -0.0245
     21 C          63.7271   82.0565   10.2987 C.3     1  UNL1        0.0307
     22 C          62.8819   83.1487   12.4994 C.ar    1  UNL1       -0.0105
@<TRIPOS>BOND
     1    15    16    1
     2    16    17   ar
     3    17    18   ar
     4    18    19   ar
     5    19    20   ar
     6    20    21    1
     7    20    22   ar
     8    22    14    1
     9    14     1    1
    10     1     3    1
    11     3     4   ar
    12     4     5   ar
    13     5     6   ar
    14     6     7   ar
    15     7     8   ar
    16     8     9    1
    17     8    10   ar
    18    10    11    1
    19    10    12   ar
    20    12    13   ar
    21    22    16   ar
    22    13     3   ar
    23    13     7   ar
    24     1     2    1
@<TRIPOS>MOLECULE
*****
 22 24 0 0 0
SMALL
GASTEIGER

@<TRIPOS>ATOM
      1 N          63.0609   90.9123   10.5653 N.pl3   1  UNL1       -0.3133
      2 H          62.9375   91.0347    9.5963 H       1  UNL1        0.1485
      3 C          64.1918   91.6010   11.2703 C.ar    1  UNL1        0.1450
      4 N          65.1865   92.4043   10.4859 N.ar    1  UNL1       -0.2263
      5 C          66.3173   93.0928   11.1909 C.ar    1  UNL1        0.1193
      6 C          66.4534   92.9781   12.6803 C.ar    1  UNL1        0.1008
      7 N          65.4588   92.1748   13.4647 N.ar    1  UNL1       -0.3053
      8 C          65.3368   91.8835   14.9311 C.ar    1  UNL1        0.0380
      9 C          66.2591   92.3746   16.0072 C.3     1  UNL1        0.0500
     10 C          64.1305   91.0149   15.1323 C.ar    1  UNL1       -0.0083
     11 C          63.6349   90.4849   16.4452 C.3     1  UNL1        0.0323
     12 C          63.5070   90.7693   13.7904 C.ar    1  UNL1        0.0172
     13 C          64.3280   91.4863   12.7597 C.ar    1  UNL1        0.0951
     14 C          62.1180   90.0373   11.3368 C.3     1  UNL1        0.1148
     15 C          63.4951   87.8117   12.8032 C.3     1  UNL1        0.0307
     16 C          62.5893   87.5014   11.6486 C.ar    1  UNL1       -0.0245
     17 C          62.3720   86.0783   11.2271 C.ar    1  UNL1       -0.0045
     18 C          61.4662   85.7680   10.0725 C.ar    1  UNL1       -0.0007
     19 C          60.7776   86.8808    9.3393 C.ar    1  UNL1       -0.0045
     20 C          60.9949   88.3039    9.7607 C.ar    1  UNL1       -0.0245
     21 C          60.3064   89.4167    9.0275 C.3     1  UNL1        0.0307
     22 C          61.9007   88.6142   10.9154 C.ar    1  UNL1       -0.0105
@<TRIPOS>BOND
     1    15    16    1
     2    16    17   ar
     3    17    18   ar
     4    18    19   ar
     5    19    20   ar
     6    20    21    1
     7    20    22   ar
     8    22    14    1
     9    14     1    1
    10     1     3    1
    11     3     4   ar
    12     4     5   ar
    13     5     6   ar
    14     6     7   ar
    15     7     8   ar
    16     8     9    1
    17     8    10   ar
    18    10    11    1
    19    10    12   ar
    20    12    13   ar
    21    22    16   ar
    22    13     3   ar
    23    13     7   ar
    24     1     2    1
@<TRIPOS>MOLECULE
*****
 22 24 0 0 0
SMALL
GASTEIGER

@<TRIPOS>ATOM
      1 N          63.5212   85.6982   11.9575 N.pl3   1  UNL1       -0.3133
      2 H          64.2048   85.3173   11.3602 H       1  UNL1        0.1485
      3 C          62.8515   86.9925   11.6019 C.ar    1  UNL1        0.1450
      4 N          63.1124   88.2218   12.4209 N.ar    1  UNL1       -0.2263
      5 C          62.4428   89.5160   12.0653 C.ar    1  UNL1        0.1193
      6 C          61.5122   89.5810   10.8906 C.ar    1  UNL1        0.1008
      7 N          61.2513   88.3517   10.0716 N.ar    1  UNL1       -0.3053
      8 C          60.3902   88.1123    8.8670 C.ar    1  UNL1        0.0380
      9 C          59.5408   89.1355    8.1731 C.3     1  UNL1        0.0500
     10 C          60.5276   86.6701    8.4781 C.ar    1  UNL1       -0.0083
     11 C          59.8397   85.9979    7.3270 C.3     1  UNL1        0.0323
     12 C          61.4737   86.0182    9.4424 C.ar    1  UNL1        0.0172
     13 C          61.9210   87.0575   10.4272 C.ar    1  UNL1        0.0951
     14 C          63.1493   84.9844   13.2233 C.3     1  UNL1        0.1148
     15 C          63.6980   83.3923   10.7405 C.3     1  UNL1        0.0307
     16 C          63.1369   82.7163   11.9562 C.ar    1  UNL1       -0.0245
     17 C          62.8501   81.2441   11.9306 C.ar    1  UNL1       -0.0045
     18 C          62.2889   80.5681   13.1463 C.ar    1  UNL1       -0.0007
     19 C          62.0146   81.3641   14.3877 C.ar    1  UNL1       -0.0045
     20 C          62.3013   82.8362   14.4134 C.ar    1  UNL1       -0.0245
     21 C          62.0270   83.6322   15.6548 C.3     1  UNL1        0.0307
     22 C          62.8625   83.5123   13.1976 C.ar    1  UNL1       -0.0105
@<TRIPOS>BOND
     1    15    16    1
     2    16    17   ar
     3    17    18   ar
     4    18    19   ar
     5    19    20   ar
     6    20    21    1
     7    20    22   ar
     8    22    14    1
     9    14     1    1
    10     1     3    1
    11     3     4   ar
    12     4     5   ar
    13     5     6   ar
    14     6     7   ar
    15     7     8   ar
    16     8     9    1
    17     8    10   ar
    18    10    11    1
    19    10    12   ar
    20    12    13   ar
    21    22    16   ar
    22    13     3   ar
    23    13     7   ar
    24     1     2    1
@<TRIPOS>MOLECULE
*****
 22 24 0 0 0
SMALL
GASTEIGER

@<TRIPOS>ATOM
      1 N          62.6857   85.5558    9.8638 N.pl3   1  UNL1       -0.3133
      2 H          63.2650   86.0076    9.2084 H       1  UNL1        0.1485
      3 C          63.2055   84.3833   10.6418 C.ar    1  UNL1        0.1450
      4 N          63.4354   83.0699    9.9548 N.ar    1  UNL1       -0.2263
      5 C          63.9552   81.8975   10.7328 C.ar    1  UNL1        0.1193
      6 C          64.2452   82.0386   12.1977 C.ar    1  UNL1        0.1008
      7 N          64.0154   83.3521   12.8847 N.ar    1  UNL1       -0.3053
      8 C          64.2090   83.7886   14.3066 C.ar    1  UNL1        0.0380
      9 C          64.7142   82.9331   15.4304 C.3     1  UNL1        0.0500
     10 C          63.8089   85.2307   14.4075 C.ar    1  UNL1       -0.0083
     11 C          63.8436   86.0705   15.6499 C.3     1  UNL1        0.0323
     12 C          63.3679   85.6855   13.0479 C.ar    1  UNL1        0.0172
     13 C          63.4955   84.5244   12.1067 C.ar    1  UNL1        0.0951
     14 C          61.2832   86.0398   10.0844 C.3     1  UNL1        0.1148
     15 C          59.6879   85.9105    7.5470 C.3     1  UNL1        0.0307
     16 C          60.0166   87.2397    8.1593 C.ar    1  UNL1       -0.0245
     17 C          59.5477   88.5044    7.5029 C.ar    1  UNL1       -0.0045
     18 C          59.8763   89.8337    8.1153 C.ar    1  UNL1       -0.0007
     19 C          60.6739   89.8983    9.3840 C.ar    1  UNL1       -0.0045
     20 C          61.1429   88.6337   10.0404 C.ar    1  UNL1       -0.0245
     21 C          61.9405   88.6984   11.3091 C.3     1  UNL1        0.0307
     22 C          60.8142   87.3044    9.4280 C.ar    1  UNL1       -0.0105
@<TRIPOS>BOND
     1    15    16    1
     2    16    17   ar
     3    17    18   ar
     4    18    19   ar
     5    19    20   ar
     6    20    21    1
     7    20    22   ar
     8    22    14    1
     9    14     1    1
    10     1     3    1
    11     3     4   ar
    12     4     5   ar
    13     5     6   ar
    14     6     7   ar
    15     7     8   ar
    16     8     9    1
    17     8    10   ar
    18    10    11    1
    19    10    12   ar
    20    12    13   ar
    21    22    16   ar
    22    13     3   ar
    23    13     7   ar
    24     1     2    1
