@<TRIPOS>MOLECULE
*****
 28 30 0 0 0
SMALL
GASTEIGER

@<TRIPOS>ATOM
      1 N          61.1651   88.5473    9.8441 N.3     1  UNL1       -0.1481
      2 C          60.1438   89.1390    8.9185 C.3     1  UNL1        0.0964
      3 C          59.4729   88.0136    8.1881 C.3     1  UNL1        0.0211
      4 C          60.0797   86.7263    8.6622 C.3     1  UNL1        0.0285
      5 C          61.1255   87.0562    9.6857 C.3     1  UNL1        0.1557
      6 C          61.9814   86.0683   10.4216 C.2     1  UNL1        0.2423
      7 O          62.9340   85.1909    9.6646 O.2     1  UNL1       -0.2733
      8 N          61.8849   85.9578   11.9143 N.am    1  UNL1       -0.2828
      9 H          61.2598   86.5337   12.4111 H       1  UNL1        0.1549
     10 C          62.7409   84.9700   12.6502 C.ar    1  UNL1        0.0508
     11 C          63.7835   85.4528   13.6144 C.ar    1  UNL1        0.0147
     12 C          64.6395   84.4650   14.3503 C.ar    1  UNL1        0.0018
     13 C          64.4527   82.9943   14.1220 C.ar    1  UNL1        0.0062
     14 C          63.4100   82.5114   13.1579 C.ar    1  UNL1        0.0265
     15 C          62.5541   83.4993   12.4220 C.ar    1  UNL1        0.0208
     16 S          63.2233   81.0407   12.9296 S.3     1  UNL1       -0.1127
     17 C          62.0642   80.3254   13.5581 C.3     1  UNL1        0.0742
     18 S          62.0676   89.3123   10.7661 S.O2    1  UNL1        0.0637
     19 O          61.2129   88.9145   11.9328 O.2     1  UNL1       -0.1528
     20 O          62.9224   89.7101    9.5994 O.2     1  UNL1       -0.1528
     21 C          64.7751   91.6075   13.5323 C.ar    1  UNL1        0.1388
     22 C          64.0003   90.4308   14.0469 C.ar    1  UNL1        0.0383
     23 C          63.0978   89.6657   13.1249 C.ar    1  UNL1        0.0230
     24 C          62.9701   90.0774   11.6882 C.ar    1  UNL1        0.1224
     25 C          63.7450   91.2541   11.1735 C.ar    1  UNL1        0.0230
     26 C          64.6474   92.0192   12.0956 C.ar    1  UNL1        0.0383
     27 C          66.5439   93.4717   13.9146 C.3     1  UNL1        0.2525
     28 O          65.6776   92.3726   14.4543 O.3     1  UNL1       -0.4714
@<TRIPOS>BOND
     1    27    28    1
     2    28    21    1
     3    21    22   ar
     4    22    23   ar
     5    23    24   ar
     6    24    18    1
     7    18    19    2
     8    18    20    2
     9    18     1    1
    10     1     2    1
    11     2     3    1
    12     3     4    1
    13     4     5    1
    14     5     6    1
    15     6     7    2
    16     6     8   am
    17     8    10    1
    18    10    11   ar
    19    11    12   ar
    20    12    13   ar
    21    13    14   ar
    22    14    16    1
    23    16    17    1
    24    14    15   ar
    25    24    25   ar
    26    25    26   ar
    27    26    21   ar
    28     5     1    1
    29    15    10   ar
    30     8     9    1
@<TRIPOS>MOLECULE
*****
 28 30 0 0 0
SMALL
GASTEIGER

@<TRIPOS>ATOM
      1 N          64.5862   91.3186   14.6425 N.3     1  UNL1       -0.1481
      2 C          64.1360   91.3128   16.0733 C.3     1  UNL1        0.0964
      3 C          65.0748   92.1802   16.8583 C.3     1  UNL1        0.0211
      4 C          66.1054   92.7221   15.9126 C.3     1  UNL1        0.0285
      5 C          65.8034   92.1895   14.5432 C.3     1  UNL1        0.1557
      6 C          66.5820   92.4774   13.2938 C.2     1  UNL1        0.2423
      7 O          68.0407   92.1347   13.2234 O.2     1  UNL1       -0.2733
      8 N          65.9021   93.1081   12.1149 N.am    1  UNL1       -0.2828
      9 H          64.9447   93.3330   12.1612 H       1  UNL1        0.1549
     10 C          66.6806   93.3960   10.8655 C.ar    1  UNL1        0.0508
     11 C          67.5293   92.3249   10.2471 C.ar    1  UNL1        0.0147
     12 C          68.3079   92.6128    8.9978 C.ar    1  UNL1        0.0018
     13 C          68.2378   93.9718    8.3668 C.ar    1  UNL1        0.0062
     14 C          67.3891   95.0429    8.9852 C.ar    1  UNL1        0.0265
     15 C          66.6105   94.7550   10.2346 C.ar    1  UNL1        0.0208
     16 S          67.3190   96.4019    8.3542 S.3     1  UNL1       -0.1127
     17 C          66.0573   96.8509    7.6784 C.3     1  UNL1        0.0742
     18 S          63.9339   90.5826   13.5099 S.O2    1  UNL1        0.0637
     19 O          63.5002   91.8879   12.9115 O.2     1  UNL1       -0.1528
     20 O          64.3675   89.2773   14.1083 O.2     1  UNL1       -0.1528
     21 C          61.9768   88.3747   10.1121 C.ar    1  UNL1        0.1388
     22 C          62.5383   87.6138   11.2764 C.ar    1  UNL1        0.0383
     23 C          63.1907   88.3498   12.4090 C.ar    1  UNL1        0.0230
     24 C          63.2815   89.8467   12.3773 C.ar    1  UNL1        0.1224
     25 C          62.7200   90.6076   11.2130 C.ar    1  UNL1        0.0230
     26 C          62.0677   89.8716   10.0804 C.ar    1  UNL1        0.0383
     27 C          60.8770   86.2193    9.1663 C.3     1  UNL1        0.2525
     28 O          61.3245   87.6388    8.9795 O.3     1  UNL1       -0.4714
@<TRIPOS>BOND
     1    27    28    1
     2    28    21    1
     3    21    22   ar
     4    22    23   ar
     5    23    24   ar
     6    24    18    1
     7    18    19    2
     8    18    20    2
     9    18     1    1
    10     1     2    1
    11     2     3    1
    12     3     4    1
    13     4     5    1
    14     5     6    1
    15     6     7    2
    16     6     8   am
    17     8    10    1
    18    10    11   ar
    19    11    12   ar
    20    12    13   ar
    21    13    14   ar
    22    14    16    1
    23    16    17    1
    24    14    15   ar
    25    24    25   ar
    26    25    26   ar
    27    26    21   ar
    28     5     1    1
    29    15    10   ar
    30     8     9    1
@<TRIPOS>MOLECULE
*****
 28 30 0 0 0
SMALL
GASTEIGER

@<TRIPOS>ATOM
      1 N          60.9592   87.5219    9.3916 N.3     1  UNL1       -0.1481
      2 C          60.1018   87.4229    8.1648 C.3     1  UNL1        0.0964
      3 C          59.5716   88.7922    7.8581 C.3     1  UNL1        0.0211
      4 C          60.1013   89.7374    8.8954 C.3     1  UNL1        0.0285
      5 C          60.9589   88.9523    9.8432 C.3     1  UNL1        0.1557
      6 C          61.6881   89.5013   11.0335 C.2     1  UNL1        0.2423
      7 O          60.9623   89.7015   12.3310 O.2     1  UNL1       -0.2733
      8 N          63.1430   89.8501   10.9265 N.am    1  UNL1       -0.2828
      9 H          63.6193   89.7187   10.0750 H       1  UNL1        0.1549
     10 C          63.8722   90.3991   12.1168 C.ar    1  UNL1        0.0508
     11 C          63.7942   89.6904   13.4365 C.ar    1  UNL1        0.0147
     12 C          64.5235   90.2394   14.6269 C.ar    1  UNL1        0.0018
     13 C          65.3306   91.4970   14.4975 C.ar    1  UNL1        0.0062
     14 C          65.4086   92.2057   13.1777 C.ar    1  UNL1        0.0265
     15 C          64.6794   91.6567   11.9874 C.ar    1  UNL1        0.0208
     16 S          66.2157   93.4634   13.0483 S.3     1  UNL1       -0.1127
     17 C          66.1821   94.2480   11.7704 C.3     1  UNL1        0.0742
     18 S          61.6888   86.3893   10.0511 S.O2    1  UNL1        0.0637
     19 O          60.8529   86.5684   11.2836 O.2     1  UNL1       -0.1528
     20 O          62.5248   86.2102    8.8186 O.2     1  UNL1       -0.1528
     21 C          63.8777   82.9915   12.0295 C.ar    1  UNL1        0.1388
     22 C          63.0639   83.9421   12.8565 C.ar    1  UNL1        0.0383
     23 C          62.3343   85.0747   12.1971 C.ar    1  UNL1        0.0230
     24 C          62.4185   85.2567   10.7106 C.ar    1  UNL1        0.1224
     25 C          63.2322   84.3061    9.8835 C.ar    1  UNL1        0.0230
     26 C          63.9619   83.1735   10.5430 C.ar    1  UNL1        0.0383
     27 C          63.8802   80.9456   13.6308 C.3     1  UNL1        0.2525
     28 O          64.6073   81.8589   12.6890 O.3     1  UNL1       -0.4714
@<TRIPOS>BOND
     1    27    28    1
     2    28    21    1
     3    21    22   ar
     4    22    23   ar
     5    23    24   ar
     6    24    18    1
     7    18    19    2
     8    18    20    2
     9    18     1    1
    10     1     2    1
    11     2     3    1
    12     3     4    1
    13     4     5    1
    14     5     6    1
    15     6     7    2
    16     6     8   am
    17     8    10    1
    18    10    11   ar
    19    11    12   ar
    20    12    13   ar
    21    13    14   ar
    22    14    16    1
    23    16    17    1
    24    14    15   ar
    25    24    25   ar
    26    25    26   ar
    27    26    21   ar
    28     5     1    1
    29    15    10   ar
    30     8     9    1
@<TRIPOS>MOLECULE
*****
 28 30 0 0 0
SMALL
GASTEIGER

@<TRIPOS>ATOM
      1 N          61.1578   88.8145    9.5645 N.3     1  UNL1       -0.1481
      2 C          60.1089   89.6176    8.8539 C.3     1  UNL1        0.0964
      3 C          59.4372   88.7225    7.8551 C.3     1  UNL1        0.0211
      4 C          60.0709   87.3661    7.9484 C.3     1  UNL1        0.0285
      5 C          61.1342   87.4230    9.0049 C.3     1  UNL1        0.1557
      6 C          62.0188   86.2877    9.4275 C.2     1  UNL1        0.2423
      7 O          63.1053   85.8031    8.5137 O.2     1  UNL1       -0.2733
      8 N          61.8170   85.6369   10.7637 N.am    1  UNL1       -0.2828
      9 H          61.1040   85.9549   11.3634 H       1  UNL1        0.1549
     10 C          62.7016   84.5016   11.1863 C.ar    1  UNL1        0.0508
     11 C          63.4441   83.7052   10.1546 C.ar    1  UNL1        0.0147
     12 C          64.3287   82.5699   10.5772 C.ar    1  UNL1        0.0018
     13 C          64.4707   82.2309   12.0315 C.ar    1  UNL1        0.0062
     14 C          63.7281   83.0272   13.0631 C.ar    1  UNL1        0.0265
     15 C          62.8436   84.1626   12.6406 C.ar    1  UNL1        0.0208
     16 S          63.8701   82.6883   14.5174 S.3     1  UNL1       -0.1127
     17 C          63.8019   83.7735   15.5506 C.3     1  UNL1        0.0742
     18 S          62.0699   89.3150   10.6450 S.O2    1  UNL1        0.0637
     19 O          62.8192   90.1317    9.6341 O.2     1  UNL1       -0.1528
     20 O          61.3207   88.4984   11.6558 O.2     1  UNL1       -0.1528
     21 C          64.8065   90.8165   13.8864 C.ar    1  UNL1        0.1388
     22 C          64.4781   91.6948   12.7156 C.ar    1  UNL1        0.0383
     23 C          63.5659   91.1943   11.6351 C.ar    1  UNL1        0.0230
     24 C          62.9821   89.8155   11.7254 C.ar    1  UNL1        0.1224
     25 C          63.3106   88.9372   12.8962 C.ar    1  UNL1        0.0230
     26 C          64.2228   89.4377   13.9767 C.ar    1  UNL1        0.0383
     27 C          66.4023   92.6436   14.8164 C.3     1  UNL1        0.2525
     28 O          65.7187   91.3170   14.9668 O.3     1  UNL1       -0.4714
@<TRIPOS>BOND
     1    27    28    1
     2    28    21    1
     3    21    22   ar
     4    22    23   ar
     5    23    24   ar
     6    24    18    1
     7    18    19    2
     8    18    20    2
     9    18     1    1
    10     1     2    1
    11     2     3    1
    12     3     4    1
    13     4     5    1
    14     5     6    1
    15     6     7    2
    16     6     8   am
    17     8    10    1
    18    10    11   ar
    19    11    12   ar
    20    12    13   ar
    21    13    14   ar
    22    14    16    1
    23    16    17    1
    24    14    15   ar
    25    24    25   ar
    26    25    26   ar
    27    26    21   ar
    28     5     1    1
    29    15    10   ar
    30     8     9    1
@<TRIPOS>MOLECULE
*****
 28 30 0 0 0
SMALL
GASTEIGER

@<TRIPOS>ATOM
      1 N          60.5642   87.3628    8.8013 N.3     1  UNL1       -0.1481
      2 C          59.6724   87.0439    7.6381 C.3     1  UNL1        0.0964
      3 C          59.0613   88.3266    7.1572 C.3     1  UNL1        0.0211
      4 C          59.5755   89.4383    8.0232 C.3     1  UNL1        0.0285
      5 C          60.5043   88.8426    9.0393 C.3     1  UNL1        0.1557
      6 C          61.2434   89.5946   10.1061 C.2     1  UNL1        0.2423
      7 O          60.4829   90.3105   11.1829 O.2     1  UNL1       -0.2733
      8 N          62.7428   89.6310   10.0962 N.am    1  UNL1       -0.2828
      9 H          63.2419   89.1612    9.3895 H       1  UNL1        0.1549
     10 C          63.4820   90.3830   11.1630 C.ar    1  UNL1        0.0508
     11 C          64.2303   91.6358   10.8159 C.ar    1  UNL1        0.0147
     12 C          64.9694   92.3879   11.8827 C.ar    1  UNL1        0.0018
     13 C          64.9603   91.8872   13.2966 C.ar    1  UNL1        0.0062
     14 C          64.2119   90.6344   13.6437 C.ar    1  UNL1        0.0265
     15 C          63.4728   89.8823   12.5769 C.ar    1  UNL1        0.0208
     16 S          64.2028   90.1337   15.0577 S.3     1  UNL1       -0.1127
     17 C          63.7792   91.0433   16.1727 C.3     1  UNL1        0.0742
     18 S          61.3737   86.3752    9.5883 S.O2    1  UNL1        0.0637
     19 O          62.1186   85.9937    8.3435 O.2     1  UNL1       -0.1528
     20 O          60.6289   86.7567   10.8332 O.2     1  UNL1       -0.1528
     21 C          63.8024   83.4126   11.9494 C.ar    1  UNL1        0.1388
     22 C          62.8830   84.3627   12.6578 C.ar    1  UNL1        0.0383
     23 C          62.0734   85.3502   11.8708 C.ar    1  UNL1        0.0230
     24 C          62.1833   85.3877   10.3753 C.ar    1  UNL1        0.1224
     25 C          63.1027   84.4376    9.6669 C.ar    1  UNL1        0.0230
     26 C          63.9123   83.4501   10.4539 C.ar    1  UNL1        0.0383
     27 C          63.9266   81.3209   13.4853 C.3     1  UNL1        0.2525
     28 O          64.6119   82.4251   12.7364 O.3     1  UNL1       -0.4714
@<TRIPOS>BOND
     1    27    28    1
     2    28    21    1
     3    21    22   ar
     4    22    23   ar
     5    23    24   ar
     6    24    18    1
     7    18    19    2
     8    18    20    2
     9    18     1    1
    10     1     2    1
    11     2     3    1
    12     3     4    1
    13     4     5    1
    14     5     6    1
    15     6     7    2
    16     6     8   am
    17     8    10    1
    18    10    11   ar
    19    11    12   ar
    20    12    13   ar
    21    13    14   ar
    22    14    16    1
    23    16    17    1
    24    14    15   ar
    25    24    25   ar
    26    25    26   ar
    27    26    21   ar
    28     5     1    1
    29    15    10   ar
    30     8     9    1
@<TRIPOS>MOLECULE
*****
 28 30 0 0 0
SMALL
GASTEIGER

@<TRIPOS>ATOM
      1 N          63.6159   83.7362   13.8814 N.3     1  UNL1       -0.1481
      2 C          64.0264   82.4680   14.5693 C.3     1  UNL1        0.0964
      3 C          63.9001   81.3442   13.5839 C.3     1  UNL1        0.0211
      4 C          63.4114   81.9178   12.2869 C.3     1  UNL1        0.0285
      5 C          63.2358   83.3961   12.4708 C.3     1  UNL1        0.1557
      6 C          62.7630   84.3644   11.4273 C.2     1  UNL1        0.2423
      7 O          63.3395   84.3161   10.0432 O.2     1  UNL1       -0.2733
      8 N          61.7140   85.3810   11.7676 N.am    1  UNL1       -0.2828
      9 H          61.3357   85.4127   12.6760 H       1  UNL1        0.1549
     10 C          61.2412   86.3492   10.7241 C.ar    1  UNL1        0.0508
     11 C          61.0184   85.8842    9.3155 C.ar    1  UNL1        0.0147
     12 C          60.5456   86.8525    8.2720 C.ar    1  UNL1        0.0018
     13 C          60.2958   88.2858    8.6370 C.ar    1  UNL1        0.0062
     14 C          60.5186   88.7508   10.0455 C.ar    1  UNL1        0.0265
     15 C          60.9914   87.7825   11.0891 C.ar    1  UNL1        0.0208
     16 S          60.2688   90.1841   10.4105 S.3     1  UNL1       -0.1127
     17 C          59.3446   90.5194   11.5435 C.3     1  UNL1        0.0742
     18 S          63.5900   85.1042   14.4962 S.O2    1  UNL1        0.0637
     19 O          62.1207   84.9578   14.7600 O.2     1  UNL1       -0.1528
     20 O          65.0594   85.2505   14.2325 O.2     1  UNL1       -0.1528
     21 C          63.5124   89.2081   16.3406 C.ar    1  UNL1        0.1388
     22 C          64.0152   89.0250   14.9393 C.ar    1  UNL1        0.0383
     23 C          64.0411   87.6570   14.3245 C.ar    1  UNL1        0.0230
     24 C          63.5641   86.4721   15.1110 C.ar    1  UNL1        0.1224
     25 C          63.0613   86.6553   16.5123 C.ar    1  UNL1        0.0230
     26 C          63.0354   88.0232   17.1271 C.ar    1  UNL1        0.0383
     27 C          64.2844   91.6888   16.3429 C.3     1  UNL1        0.2525
     28 O          63.4865   90.5761   16.9554 O.3     1  UNL1       -0.4714
@<TRIPOS>BOND
     1    27    28    1
     2    28    21    1
     3    21    22   ar
     4    22    23   ar
     5    23    24   ar
     6    24    18    1
     7    18    19    2
     8    18    20    2
     9    18     1    1
    10     1     2    1
    11     2     3    1
    12     3     4    1
    13     4     5    1
    14     5     6    1
    15     6     7    2
    16     6     8   am
    17     8    10    1
    18    10    11   ar
    19    11    12   ar
    20    12    13   ar
    21    13    14   ar
    22    14    16    1
    23    16    17    1
    24    14    15   ar
    25    24    25   ar
    26    25    26   ar
    27    26    21   ar
    28     5     1    1
    29    15    10   ar
    30     8     9    1
@<TRIPOS>MOLECULE
*****
 28 30 0 0 0
SMALL
GASTEIGER

@<TRIPOS>ATOM
      1 N          61.6510   89.6213   10.9797 N.3     1  UNL1       -0.1481
      2 C          60.6278   90.4537   10.2654 C.3     1  UNL1        0.0964
      3 C          59.7407   89.5293    9.4853 C.3     1  UNL1        0.0211
      4 C          60.2157   88.1256    9.7173 C.3     1  UNL1        0.0285
      5 C          61.3962   88.1824   10.6409 C.3     1  UNL1        0.1557
      6 C          62.1838   87.0067   11.1384 C.2     1  UNL1        0.2423
      7 O          63.1262   87.1701   12.2941 O.2     1  UNL1       -0.2733
      8 N          62.0292   85.6677   10.4804 N.am    1  UNL1       -0.2828
      9 H          61.4108   85.5605    9.7219 H       1  UNL1        0.1549
     10 C          62.8168   84.4921   10.9778 C.ar    1  UNL1        0.0508
     11 C          63.8053   83.8154   10.0751 C.ar    1  UNL1        0.0147
     12 C          64.5929   82.6397   10.5726 C.ar    1  UNL1        0.0018
     13 C          64.3920   82.1407   11.9728 C.ar    1  UNL1        0.0062
     14 C          63.4034   82.8173   12.8755 C.ar    1  UNL1        0.0265
     15 C          62.6158   83.9930   12.3780 C.ar    1  UNL1        0.0208
     16 S          63.2025   82.3183   14.2757 S.3     1  UNL1       -0.1127
     17 C          62.8717   83.2832   15.3756 C.3     1  UNL1        0.0742
     18 S          62.7380   90.1371   11.8754 S.O2    1  UNL1        0.0637
     19 O          61.8981   89.8204   13.0771 O.2     1  UNL1       -0.1528
     20 O          63.5779   90.4538   10.6736 O.2     1  UNL1       -0.1528
     21 C          65.9991   91.6846   14.5625 C.ar    1  UNL1        0.1388
     22 C          65.1408   90.5382   15.0084 C.ar    1  UNL1        0.0383
     23 C          64.0538   90.0223   14.1127 C.ar    1  UNL1        0.0230
     24 C          63.8250   90.6530   12.7711 C.ar    1  UNL1        0.1224
     25 C          64.6833   91.7994   12.3252 C.ar    1  UNL1        0.0230
     26 C          65.7704   92.3153   13.2209 C.ar    1  UNL1        0.0383
     27 C          68.4500   92.4782   14.8990 C.3     1  UNL1        0.2525
     28 O          67.0861   92.2005   15.4581 O.3     1  UNL1       -0.4714
@<TRIPOS>BOND
     1    27    28    1
     2    28    21    1
     3    21    22   ar
     4    22    23   ar
     5    23    24   ar
     6    24    18    1
     7    18    19    2
     8    18    20    2
     9    18     1    1
    10     1     2    1
    11     2     3    1
    12     3     4    1
    13     4     5    1
    14     5     6    1
    15     6     7    2
    16     6     8   am
    17     8    10    1
    18    10    11   ar
    19    11    12   ar
    20    12    13   ar
    21    13    14   ar
    22    14    16    1
    23    16    17    1
    24    14    15   ar
    25    24    25   ar
    26    25    26   ar
    27    26    21   ar
    28     5     1    1
    29    15    10   ar
    30     8     9    1
@<TRIPOS>MOLECULE
*****
 28 30 0 0 0
SMALL
GASTEIGER

@<TRIPOS>ATOM
      1 N          63.3490   90.1507   13.5711 N.3     1  UNL1       -0.1481
      2 C          63.0752   89.8488   15.0147 C.3     1  UNL1        0.0964
      3 C          63.9802   90.7074   15.8476 C.3     1  UNL1        0.0211
      4 C          64.8134   91.5399   14.9188 C.3     1  UNL1        0.0285
      5 C          64.4233   91.1959   13.5119 C.3     1  UNL1        0.1557
      6 C          65.0053   91.7923   12.2647 C.2     1  UNL1        0.2423
      7 O          64.2354   91.7399   10.9783 O.2     1  UNL1       -0.2733
      8 N          66.3571   92.4411   12.3037 N.am    1  UNL1       -0.2828
      9 H          66.8623   92.4755   13.1479 H       1  UNL1        0.1549
     10 C          66.9391   93.0376   11.0565 C.ar    1  UNL1        0.0508
     11 C          67.8059   92.2037   10.1602 C.ar    1  UNL1        0.0147
     12 C          68.3879   92.8002    8.9130 C.ar    1  UNL1        0.0018
     13 C          68.1031   94.2304    8.5621 C.ar    1  UNL1        0.0062
     14 C          67.2363   95.0643    9.4584 C.ar    1  UNL1        0.0265
     15 C          66.6543   94.4678   10.7056 C.ar    1  UNL1        0.0208
     16 S          66.9515   96.4946    9.1074 S.3     1  UNL1       -0.1127
     17 C          66.5261   96.8548    7.7149 C.3     1  UNL1        0.0742
     18 S          62.6681   89.5184   12.3936 S.O2    1  UNL1        0.0637
     19 O          63.5111   88.2897   12.5659 O.2     1  UNL1       -0.1528
     20 O          61.8252   90.7471   12.2212 O.2     1  UNL1       -0.1528
     21 C          60.6255   87.6215    8.8609 C.ar    1  UNL1        0.1388
     22 C          60.3098   89.0385    9.2380 C.ar    1  UNL1        0.0383
     23 C          60.9906   89.6708   10.4155 C.ar    1  UNL1        0.0230
     24 C          61.9873   88.8861   11.2160 C.ar    1  UNL1        0.1224
     25 C          62.3030   87.4690   10.8390 C.ar    1  UNL1        0.0230
     26 C          61.6222   86.8367    9.6614 C.ar    1  UNL1        0.0383
     27 C          60.2433   85.5649    7.3201 C.3     1  UNL1        0.2525
     28 O          59.9447   86.9892    7.6834 O.3     1  UNL1       -0.4714
@<TRIPOS>BOND
     1    27    28    1
     2    28    21    1
     3    21    22   ar
     4    22    23   ar
     5    23    24   ar
     6    24    18    1
     7    18    19    2
     8    18    20    2
     9    18     1    1
    10     1     2    1
    11     2     3    1
    12     3     4    1
    13     4     5    1
    14     5     6    1
    15     6     7    2
    16     6     8   am
    17     8    10    1
    18    10    11   ar
    19    11    12   ar
    20    12    13   ar
    21    13    14   ar
    22    14    16    1
    23    16    17    1
    24    14    15   ar
    25    24    25   ar
    26    25    26   ar
    27    26    21   ar
    28     5     1    1
    29    15    10   ar
    30     8     9    1
@<TRIPOS>MOLECULE
*****
 28 30 0 0 0
SMALL
GASTEIGER

@<TRIPOS>ATOM
      1 N          62.6655   85.0903   11.5829 N.3     1  UNL1       -0.1481
      2 C          62.8210   83.5999   11.5174 C.3     1  UNL1        0.0964
      3 C          63.6792   83.1722   12.6709 C.3     1  UNL1        0.0211
      4 C          64.0540   84.3983   13.4494 C.3     1  UNL1        0.0285
      5 C          63.4275   85.5838   12.7770 C.3     1  UNL1        0.1557
      6 C          63.5428   87.0120   13.2208 C.2     1  UNL1        0.2423
      7 O          63.2572   88.1231   12.2542 O.2     1  UNL1       -0.2733
      8 N          63.9437   87.3292   14.6309 N.am    1  UNL1       -0.2828
      9 H          64.1312   86.6000   15.2652 H       1  UNL1        0.1549
     10 C          64.0591   88.7574   15.0746 C.ar    1  UNL1        0.0508
     11 C          63.2973   89.2334   16.2760 C.ar    1  UNL1        0.0147
     12 C          63.4127   90.6616   16.7197 C.ar    1  UNL1        0.0018
     13 C          64.2897   91.6139   15.9621 C.ar    1  UNL1        0.0062
     14 C          65.0514   91.1379   14.7608 C.ar    1  UNL1        0.0265
     15 C          64.9361   89.7097   14.3171 C.ar    1  UNL1        0.0208
     16 S          65.9285   92.0902   14.0032 S.3     1  UNL1       -0.1127
     17 C          65.5467   92.5215   12.6182 C.3     1  UNL1        0.0742
     18 S          61.8850   85.9384   10.6230 S.O2    1  UNL1        0.0637
     19 O          62.8053   85.5279    9.5119 O.2     1  UNL1       -0.1528
     20 O          60.9646   86.3490   11.7340 O.2     1  UNL1       -0.1528
     21 C          59.5434   88.4827    7.7431 C.ar    1  UNL1        0.1388
     22 C          60.3174   89.1269    8.8548 C.ar    1  UNL1        0.0383
     23 C          61.0979   88.2788    9.8148 C.ar    1  UNL1        0.0230
     24 C          61.1044   86.7865    9.6630 C.ar    1  UNL1        0.1224
     25 C          60.3305   86.1424    8.5513 C.ar    1  UNL1        0.0230
     26 C          59.5499   86.9904    7.5913 C.ar    1  UNL1        0.0383
     27 C          59.4819   90.1948    5.7899 C.3     1  UNL1        0.2525
     28 O          58.7629   89.3308    6.7831 O.3     1  UNL1       -0.4714
@<TRIPOS>BOND
     1    27    28    1
     2    28    21    1
     3    21    22   ar
     4    22    23   ar
     5    23    24   ar
     6    24    18    1
     7    18    19    2
     8    18    20    2
     9    18     1    1
    10     1     2    1
    11     2     3    1
    12     3     4    1
    13     4     5    1
    14     5     6    1
    15     6     7    2
    16     6     8   am
    17     8    10    1
    18    10    11   ar
    19    11    12   ar
    20    12    13   ar
    21    13    14   ar
    22    14    16    1
    23    16    17    1
    24    14    15   ar
    25    24    25   ar
    26    25    26   ar
    27    26    21   ar
    28     5     1    1
    29    15    10   ar
    30     8     9    1
