@<TRIPOS>MOLECULE
*****
 12 13 0 0 0
SMALL
GASTEIGER

@<TRIPOS>ATOM
      1 C          68.0928   92.0045    9.6403 C.3     1  UNL1        0.0316
      2 C          67.4924   93.3734    9.7655 C.ar    1  UNL1       -0.0153
      3 C          68.0079   94.6247    9.1188 C.ar    1  UNL1        0.0032
      4 C          67.1051   95.7560    9.5130 C.ar    1  UNL1        0.0351
      5 S          66.0317   95.2037   10.4034 S.2     1  UNL1       -0.0867
      6 C          66.2711   93.7312   10.5595 C.ar    1  UNL1        0.0270
      7 C          65.4357   92.7829   11.3676 C.ar    1  UNL1        0.0249
      8 C          64.4011   91.9323   10.6923 C.ar    1  UNL1        0.0036
      9 C          63.5658   90.9842   11.5005 C.ar    1  UNL1        0.0207
     10 C          63.7651   90.8865   12.9840 C.ar    1  UNL1        0.0989
     11 N          64.7997   91.7371   13.6593 N.ar    1  UNL1       -0.2423
     12 C          65.6350   92.6853   12.8511 C.ar    1  UNL1        0.0993
@<TRIPOS>BOND
     1     1     2    1
     2     2     3   ar
     3     3     4   ar
     4     4     5   ar
     5     5     6   ar
     6     6     7    1
     7     7     8   ar
     8     8     9   ar
     9     9    10   ar
    10    10    11   ar
    11    11    12   ar
    12     6     2   ar
    13    12     7   ar
@<TRIPOS>MOLECULE
*****
 12 13 0 0 0
SMALL
GASTEIGER

@<TRIPOS>ATOM
      1 C          62.8034   85.5830    8.7711 C.3     1  UNL1        0.0316
      2 C          61.4942   86.2827    8.5556 C.ar    1  UNL1       -0.0153
      3 C          60.3949   85.8336    7.6393 C.ar    1  UNL1        0.0032
      4 C          59.2757   86.8277    7.7360 C.ar    1  UNL1        0.0351
      5 S          59.6834   87.8911    8.7122 S.2     1  UNL1       -0.0867
      6 C          61.0546   87.5543    9.2187 C.ar    1  UNL1        0.0270
      7 C          61.8469   88.3495   10.2137 C.ar    1  UNL1        0.0249
      8 C          62.0935   89.8106    9.9804 C.ar    1  UNL1        0.0036
      9 C          62.8858   90.6057   10.9753 C.ar    1  UNL1        0.0207
     10 C          63.4315   89.9398   12.2036 C.ar    1  UNL1        0.0989
     11 N          63.1849   88.4787   12.4370 N.ar    1  UNL1       -0.2423
     12 C          62.3926   87.6836   11.4420 C.ar    1  UNL1        0.0993
@<TRIPOS>BOND
     1     1     2    1
     2     2     3   ar
     3     3     4   ar
     4     4     5   ar
     5     5     6   ar
     6     6     7    1
     7     7     8   ar
     8     8     9   ar
     9     9    10   ar
    10    10    11   ar
    11    11    12   ar
    12     6     2   ar
    13    12     7   ar
@<TRIPOS>MOLECULE
*****
 12 13 0 0 0
SMALL
GASTEIGER

@<TRIPOS>ATOM
      1 C          63.5193   91.4572   10.4191 C.3     1  UNL1        0.0316
      2 C          64.2255   91.5138   11.7413 C.ar    1  UNL1       -0.0153
      3 C          63.7978   90.8187   12.9998 C.ar    1  UNL1        0.0032
      4 C          64.7914   91.1508   14.0734 C.ar    1  UNL1        0.0351
      5 S          65.8331   92.0512   13.4784 S.2     1  UNL1       -0.0867
      6 C          65.4834   92.2755   12.0371 C.ar    1  UNL1        0.0270
      7 C          66.2560   93.1144   11.0626 C.ar    1  UNL1        0.0249
      8 C          67.3170   92.4862   10.2085 C.ar    1  UNL1        0.0036
      9 C          68.0895   93.3251    9.2341 C.ar    1  UNL1        0.0207
     10 C          67.8010   94.7922    9.1139 C.ar    1  UNL1        0.0989
     11 N          66.7400   95.4204    9.9680 N.ar    1  UNL1       -0.2423
     12 C          65.9675   94.5815   10.9424 C.ar    1  UNL1        0.0993
@<TRIPOS>BOND
     1     1     2    1
     2     2     3   ar
     3     3     4   ar
     4     4     5   ar
     5     5     6   ar
     6     6     7    1
     7     7     8   ar
     8     8     9   ar
     9     9    10   ar
    10    10    11   ar
    11    11    12   ar
    12     6     2   ar
    13    12     7   ar
@<TRIPOS>MOLECULE
*****
 12 13 0 0 0
SMALL
GASTEIGER

@<TRIPOS>ATOM
      1 C          64.2539   82.6969   10.9249 C.3     1  UNL1        0.0316
      2 C          63.4167   82.1860   12.0598 C.ar    1  UNL1       -0.0153
      3 C          62.7931   80.8249   12.1525 C.ar    1  UNL1        0.0032
      4 C          62.0471   80.7442   13.4513 C.ar    1  UNL1        0.0351
      5 S          62.2096   82.0555   14.1614 S.2     1  UNL1       -0.0867
      6 C          63.0561   82.9466   13.3014 C.ar    1  UNL1        0.0270
      7 C          63.4693   84.3515   13.6261 C.ar    1  UNL1        0.0249
      8 C          64.3333   84.6218   14.8221 C.ar    1  UNL1        0.0036
      9 C          64.7465   86.0267   15.1467 C.ar    1  UNL1        0.0207
     10 C          64.2958   87.1614   14.2753 C.ar    1  UNL1        0.0989
     11 N          63.4319   86.8911   13.0793 N.ar    1  UNL1       -0.2423
     12 C          63.0186   85.4862   12.7547 C.ar    1  UNL1        0.0993
@<TRIPOS>BOND
     1     1     2    1
     2     2     3   ar
     3     3     4   ar
     4     4     5   ar
     5     5     6   ar
     6     6     7    1
     7     7     8   ar
     8     8     9   ar
     9     9    10   ar
    10    10    11   ar
    11    11    12   ar
    12     6     2   ar
    13    12     7   ar
@<TRIPOS>MOLECULE
*****
 12 13 0 0 0
SMALL
GASTEIGER

@<TRIPOS>ATOM
      1 C          63.1202   84.0450   11.1598 C.3     1  UNL1        0.0316
      2 C          62.9987   82.7832   11.9617 C.ar    1  UNL1       -0.0153
      3 C          62.8282   81.3996   11.4079 C.ar    1  UNL1        0.0032
      4 C          62.7506   80.4446   12.5621 C.ar    1  UNL1        0.0351
      5 S          62.8732   81.2381   13.8292 S.2     1  UNL1       -0.0867
      6 C          63.0266   82.6834   13.4581 C.ar    1  UNL1        0.0270
      7 C          63.1807   83.8279   14.4154 C.ar    1  UNL1        0.0249
      8 C          64.3779   84.7269   14.3230 C.ar    1  UNL1        0.0036
      9 C          64.5320   85.8714   15.2802 C.ar    1  UNL1        0.0207
     10 C          63.4889   86.1168   16.3299 C.ar    1  UNL1        0.0989
     11 N          62.2918   85.2178   16.4224 N.ar    1  UNL1       -0.2423
     12 C          62.1377   84.0733   15.4651 C.ar    1  UNL1        0.0993
@<TRIPOS>BOND
     1     1     2    1
     2     2     3   ar
     3     3     4   ar
     4     4     5   ar
     5     5     6   ar
     6     6     7    1
     7     7     8   ar
     8     8     9   ar
     9     9    10   ar
    10    10    11   ar
    11    11    12   ar
    12     6     2   ar
    13    12     7   ar
@<TRIPOS>MOLECULE
*****
 12 13 0 0 0
SMALL
GASTEIGER

@<TRIPOS>ATOM
      1 C          59.8863   86.0895    7.6880 C.3     1  UNL1        0.0316
      2 C          60.3912   87.2347    8.5148 C.ar    1  UNL1       -0.0153
      3 C          59.9440   88.6626    8.4096 C.ar    1  UNL1        0.0032
      4 C          60.7085   89.4635    9.4217 C.ar    1  UNL1        0.0351
      5 S          61.6281   88.5305   10.1524 S.2     1  UNL1       -0.0867
      6 C          61.4320   87.1530    9.5918 C.ar    1  UNL1        0.0270
      7 C          62.1507   85.9118   10.0313 C.ar    1  UNL1        0.0249
      8 C          62.9724   85.1329    9.0474 C.ar    1  UNL1        0.0036
      9 C          63.6909   83.8917    9.4869 C.ar    1  UNL1        0.0207
     10 C          63.5878   83.4295   10.9102 C.ar    1  UNL1        0.0989
     11 N          62.7661   84.2085   11.8940 N.ar    1  UNL1       -0.2423
     12 C          62.0475   85.4496   11.4545 C.ar    1  UNL1        0.0993
@<TRIPOS>BOND
     1     1     2    1
     2     2     3   ar
     3     3     4   ar
     4     4     5   ar
     5     5     6   ar
     6     6     7    1
     7     7     8   ar
     8     8     9   ar
     9     9    10   ar
    10    10    11   ar
    11    11    12   ar
    12     6     2   ar
    13    12     7   ar
@<TRIPOS>MOLECULE
*****
 12 13 0 0 0
SMALL
GASTEIGER

@<TRIPOS>ATOM
      1 C          62.8246   81.5722   11.6540 C.3     1  UNL1        0.0316
      2 C          63.2435   82.6435   12.6167 C.ar    1  UNL1       -0.0153
      3 C          63.7823   82.4247   13.9993 C.ar    1  UNL1        0.0032
      4 C          64.0691   83.7677   14.6030 C.ar    1  UNL1        0.0351
      5 S          63.7075   84.8164   13.5933 S.2     1  UNL1       -0.0867
      6 C          63.1973   84.1216   12.3657 C.ar    1  UNL1        0.0270
      7 C          62.7239   84.7880   11.1079 C.ar    1  UNL1        0.0249
      8 C          63.4007   84.4927    9.8023 C.ar    1  UNL1        0.0036
      9 C          62.9273   85.1591    8.5446 C.ar    1  UNL1        0.0207
     10 C          61.7772   86.1208    8.5926 C.ar    1  UNL1        0.0989
     11 N          61.1005   86.4162    9.8982 N.ar    1  UNL1       -0.2423
     12 C          61.5739   85.7498   11.1559 C.ar    1  UNL1        0.0993
@<TRIPOS>BOND
     1     1     2    1
     2     2     3   ar
     3     3     4   ar
     4     4     5   ar
     5     5     6   ar
     6     6     7    1
     7     7     8   ar
     8     8     9   ar
     9     9    10   ar
    10    10    11   ar
    11    11    12   ar
    12     6     2   ar
    13    12     7   ar
@<TRIPOS>MOLECULE
*****
 12 13 0 0 0
SMALL
GASTEIGER

@<TRIPOS>ATOM
      1 C          64.3577   82.9408   10.0528 C.3     1  UNL1        0.0316
      2 C          63.4676   84.1474   10.0100 C.ar    1  UNL1       -0.0153
      3 C          63.0832   84.9163    8.7807 C.ar    1  UNL1        0.0032
      4 C          62.1837   86.0411    9.1999 C.ar    1  UNL1        0.0351
      5 S          62.0123   85.9675   10.6882 S.2     1  UNL1       -0.0867
      6 C          62.8057   84.7971   11.1889 C.ar    1  UNL1        0.0270
      7 C          62.9177   84.3542   12.6177 C.ar    1  UNL1        0.0249
      8 C          62.4065   83.0046   13.0268 C.ar    1  UNL1        0.0036
      9 C          62.5184   82.5618   14.4555 C.ar    1  UNL1        0.0207
     10 C          63.1415   83.4685   15.4751 C.ar    1  UNL1        0.0989
     11 N          63.6527   84.8180   15.0660 N.ar    1  UNL1       -0.2423
     12 C          63.5407   85.2609   13.6373 C.ar    1  UNL1        0.0993
@<TRIPOS>BOND
     1     1     2    1
     2     2     3   ar
     3     3     4   ar
     4     4     5   ar
     5     5     6   ar
     6     6     7    1
     7     7     8   ar
     8     8     9   ar
     9     9    10   ar
    10    10    11   ar
    11    11    12   ar
    12     6     2   ar
    13    12     7   ar
@<TRIPOS>MOLECULE
*****
 12 13 0 0 0
SMALL
GASTEIGER

@<TRIPOS>ATOM
      1 C          61.8036   81.1772   14.0820 C.3     1  UNL1        0.0316
      2 C          62.5849   81.7553   12.9396 C.ar    1  UNL1       -0.0153
      3 C          62.7924   81.1142   11.5995 C.ar    1  UNL1        0.0032
      4 C          63.6317   82.0387   10.7682 C.ar    1  UNL1        0.0351
      5 S          63.9429   83.2512   11.5947 S.2     1  UNL1       -0.0867
      6 C          63.2959   83.0761   12.9366 C.ar    1  UNL1        0.0270
      7 C          63.3505   84.0506   14.0757 C.ar    1  UNL1        0.0249
      8 C          64.5583   84.9205   14.2612 C.ar    1  UNL1        0.0036
      9 C          64.6128   85.8950   15.4002 C.ar    1  UNL1        0.0207
     10 C          63.4596   85.9996   16.3536 C.ar    1  UNL1        0.0989
     11 N          62.2518   85.1297   16.1681 N.ar    1  UNL1       -0.2423
     12 C          62.1973   84.1552   15.0291 C.ar    1  UNL1        0.0993
@<TRIPOS>BOND
     1     1     2    1
     2     2     3   ar
     3     3     4   ar
     4     4     5   ar
     5     5     6   ar
     6     6     7    1
     7     7     8   ar
     8     8     9   ar
     9     9    10   ar
    10    10    11   ar
    11    11    12   ar
    12     6     2   ar
    13    12     7   ar
