@<TRIPOS>MOLECULE
*****
 42 46 0 0 0
SMALL
GASTEIGER

@<TRIPOS>ATOM
      1 C          61.9428   88.4678   11.0849 C.3     1  UNL1        0.0807
      2 C          62.9454   89.4884   11.5358 C.ar    1  UNL1        0.0375
      3 C          63.2770   90.6550   10.6531 C.ar    1  UNL1        0.0023
      4 C          64.2797   91.6755   11.1040 C.ar    1  UNL1        0.0183
      5 C          64.6113   92.8421   10.2214 C.ar    1  UNL1        0.0118
      6 C          65.6138   93.8626   10.6723 C.ar    1  UNL1        0.0685
      7 C          66.2848   93.7165   12.0059 C.ar    1  UNL1        0.0118
      8 C          65.9532   92.5500   12.8886 C.ar    1  UNL1        0.0199
      9 C          64.9506   91.5295   12.4376 C.ar    1  UNL1        0.0844
     10 N          64.6189   90.3629   13.3203 N.ar    1  UNL1       -0.2119
     11 C          63.6164   89.3424   12.8694 C.ar    1  UNL1        0.2211
     12 C          65.9455   95.0292    9.7896 C.1     1  UNL1        0.1004
     13 N          66.2772   96.1958    8.9070 N.1     1  UNL1       -0.1908
     14 O          63.2847   88.1757   13.7521 O.3     1  UNL1       -0.4563
     15 C          64.3494   87.5565   14.6083 C.3     1  UNL1        0.2542
     16 C          62.4074   87.1777   10.4770 C.ar    1  UNL1        0.0215
     17 C          62.8366   87.1372    9.0403 C.ar    1  UNL1       -0.0007
     18 C          63.3012   85.8470    8.4324 C.ar    1  UNL1        0.0030
     19 C          63.3366   84.5973    9.2612 C.ar    1  UNL1        0.0402
     20 C          62.9073   84.6378   10.6979 C.ar    1  UNL1        0.1761
     21 C          62.4427   85.9279   11.3058 C.ar    1  UNL1        0.1728
     22 O          62.0829   85.6626   12.7376 O.3     1  UNL1       -0.4349
     23 C          62.3251   84.2084   13.0146 C.3     1  UNL1        0.4294
     24 O          62.8347   83.5750   11.7540 O.3     1  UNL1       -0.4346
     25 C          60.4756   88.7375   11.2419 C.3     1  UNL1        0.1162
     26 O          60.6849   89.0280   12.6985 O.3     1  UNL1       -0.3820
     27 H          59.8355   89.2550   13.1082 H       1  UNL1        0.2107
     28 C          60.0177   89.2818    7.3375 C.ar    1  UNL1        0.2272
     29 C          60.2270   89.5723    8.7942 C.ar    1  UNL1        0.0559
     30 C          60.2663   88.4470    9.7852 C.ar    1  UNL1        0.0117
     31 C          60.0964   87.0313    9.3197 C.ar    1  UNL1        0.0559
     32 C          59.8872   86.7408    7.8630 C.ar    1  UNL1        0.2272
     33 N          59.8478   87.8661    6.8719 N.ar    1  UNL1       -0.1767
     34 C          58.7214   90.6846    5.5763 C.3     1  UNL1        0.2542
     35 O          59.9783   90.4071    6.3465 O.3     1  UNL1       -0.4561
     36 O          59.7173   85.3250    7.3974 O.3     1  UNL1       -0.4561
     37 C          60.7708   84.6850    6.5428 C.3     1  UNL1        0.2542
     38 C          59.0084   89.0072   11.3989 C.3     1  UNL1        0.0491
     39 C          58.4843   89.5804   12.6821 C.3     1  UNL1        0.0750
     40 N          57.9747   88.6682   13.7582 N.3     1  UNL1       -0.2702
     41 C          56.6702   87.9502   13.5772 C.3     1  UNL1        0.0897
     42 C          58.7695   88.4739   15.0154 C.3     1  UNL1        0.0897
@<TRIPOS>BOND
     1    34    35    1
     2    35    28    1
     3    28    29   ar
     4    29    30   ar
     5    30    25    1
     6    25    26    1
     7    25    38    1
     8    38    39    1
     9    39    40    1
    10    40    41    1
    11    40    42    1
    12    25     1    1
    13     1     2    1
    14     2     3   ar
    15     3     4   ar
    16     4     5   ar
    17     5     6   ar
    18     6    12    1
    19    12    13    3
    20     6     7   ar
    21     7     8   ar
    22     8     9   ar
    23     9    10   ar
    24    10    11   ar
    25    11    14    1
    26    14    15    1
    27     1    16    1
    28    16    17   ar
    29    17    18   ar
    30    18    19   ar
    31    19    20   ar
    32    20    21   ar
    33    21    22    1
    34    22    23    1
    35    23    24    1
    36    30    31   ar
    37    31    32   ar
    38    32    36    1
    39    36    37    1
    40    32    33   ar
    41    33    28   ar
    42    11     2   ar
    43    21    16   ar
    44     9     4   ar
    45    24    20    1
    46    26    27    1
@<TRIPOS>MOLECULE
*****
 42 46 0 0 0
SMALL
GASTEIGER

@<TRIPOS>ATOM
      1 C          61.9448   88.4528   11.0770 C.3     1  UNL1        0.0807
      2 C          62.9471   89.4724   11.5309 C.ar    1  UNL1        0.0375
      3 C          63.2750   90.6440   10.6536 C.ar    1  UNL1        0.0023
      4 C          64.2773   91.6636   11.1075 C.ar    1  UNL1        0.0183
      5 C          64.6053   92.8352   10.2302 C.ar    1  UNL1        0.0118
      6 C          65.6075   93.8547   10.6841 C.ar    1  UNL1        0.0685
      7 C          66.2817   93.7026   12.0154 C.ar    1  UNL1        0.0118
      8 C          65.9538   92.5310   12.8927 C.ar    1  UNL1        0.0199
      9 C          64.9515   91.5115   12.4388 C.ar    1  UNL1        0.0844
     10 N          64.6235   90.3399   13.3161 N.ar    1  UNL1       -0.2119
     11 C          63.6213   89.3203   12.8622 C.ar    1  UNL1        0.2211
     12 C          65.9355   95.0263    9.8067 C.1     1  UNL1        0.1004
     13 N          66.2636   96.1980    8.9294 N.1     1  UNL1       -0.1908
     14 O          63.2933   88.1487   13.7396 O.3     1  UNL1       -0.4563
     15 C          64.3531   87.5461   14.6134 C.3     1  UNL1        0.2542
     16 C          62.4098   87.1644   10.4657 C.ar    1  UNL1        0.0215
     17 C          62.8408   87.1283    9.0295 C.ar    1  UNL1       -0.0007
     18 C          63.3058   85.8398    8.4181 C.ar    1  UNL1        0.0030
     19 C          63.3400   84.5875    9.2431 C.ar    1  UNL1        0.0402
     20 C          62.9090   84.6237   10.6795 C.ar    1  UNL1        0.1761
     21 C          62.4440   85.9121   11.2908 C.ar    1  UNL1        0.1728
     22 O          62.0824   85.6425   12.7213 O.3     1  UNL1       -0.4349
     23 C          62.3240   84.1874   12.9942 C.3     1  UNL1        0.4294
     24 O          62.8349   83.5578   11.7322 O.3     1  UNL1       -0.4346
     25 C          60.4775   88.7217   11.2344 C.3     1  UNL1        0.1162
     26 O          60.6869   89.0113   12.6912 O.3     1  UNL1       -0.3820
     27 H          59.8374   89.2376   13.1012 H       1  UNL1        0.2107
     28 C          59.8911   86.7269    7.8541 C.ar    1  UNL1        0.2272
     29 C          60.1005   87.0165    9.3109 C.ar    1  UNL1        0.0559
     30 C          60.2682   88.4321    9.7776 C.ar    1  UNL1        0.0117
     31 C          60.2265   89.5581    8.7875 C.ar    1  UNL1        0.0559
     32 C          60.0172   89.2685    7.3307 C.ar    1  UNL1        0.2272
     33 N          59.8495   87.8529    6.8640 N.ar    1  UNL1       -0.1767
     34 C          60.7795   84.6724    6.5349 C.3     1  UNL1        0.2542
     35 O          59.7234   85.3112    7.3874 O.3     1  UNL1       -0.4561
     36 O          59.9755   90.3946    6.3406 O.3     1  UNL1       -0.4561
     37 C          58.7185   90.6693    5.5696 C.3     1  UNL1        0.2542
     38 C          59.0102   88.9906   11.3918 C.3     1  UNL1        0.0491
     39 C          58.4864   89.5653   12.6745 C.3     1  UNL1        0.0750
     40 N          57.9757   88.6544   13.7512 N.3     1  UNL1       -0.2702
     41 C          58.7711   88.4588   15.0078 C.3     1  UNL1        0.0897
     42 C          56.6697   87.9390   13.5714 C.3     1  UNL1        0.0897
@<TRIPOS>BOND
     1    34    35    1
     2    35    28    1
     3    28    29   ar
     4    29    30   ar
     5    30    25    1
     6    25    26    1
     7    25    38    1
     8    38    39    1
     9    39    40    1
    10    40    41    1
    11    40    42    1
    12    25     1    1
    13     1     2    1
    14     2     3   ar
    15     3     4   ar
    16     4     5   ar
    17     5     6   ar
    18     6    12    1
    19    12    13    3
    20     6     7   ar
    21     7     8   ar
    22     8     9   ar
    23     9    10   ar
    24    10    11   ar
    25    11    14    1
    26    14    15    1
    27     1    16    1
    28    16    17   ar
    29    17    18   ar
    30    18    19   ar
    31    19    20   ar
    32    20    21   ar
    33    21    22    1
    34    22    23    1
    35    23    24    1
    36    30    31   ar
    37    31    32   ar
    38    32    36    1
    39    36    37    1
    40    32    33   ar
    41    33    28   ar
    42    11     2   ar
    43    21    16   ar
    44     9     4   ar
    45    24    20    1
    46    26    27    1
@<TRIPOS>MOLECULE
*****
 42 46 0 0 0
SMALL
GASTEIGER

@<TRIPOS>ATOM
      1 C          62.3641   89.3067   12.2756 C.3     1  UNL1        0.0807
      2 C          62.8593   87.9683   12.7377 C.ar    1  UNL1        0.0375
      3 C          62.7029   86.7653   11.8555 C.ar    1  UNL1        0.0023
      4 C          63.1982   85.4269   12.3175 C.ar    1  UNL1        0.0183
      5 C          63.0418   84.2239   11.4353 C.ar    1  UNL1        0.0118
      6 C          63.5370   82.8856   11.8974 C.ar    1  UNL1        0.0685
      7 C          64.1886   82.7502   13.2417 C.ar    1  UNL1        0.0118
      8 C          64.3450   83.9532   14.1239 C.ar    1  UNL1        0.0199
      9 C          63.8497   85.2915   13.6618 C.ar    1  UNL1        0.0844
     10 N          64.0061   86.4946   14.5441 N.ar    1  UNL1       -0.2119
     11 C          63.5109   87.8329   14.0820 C.ar    1  UNL1        0.2211
     12 C          63.3807   81.6825   11.0152 C.1     1  UNL1        0.1004
     13 N          63.2243   80.4795   10.1330 N.1     1  UNL1       -0.1908
     14 O          63.6672   89.0360   14.9642 O.3     1  UNL1       -0.4563
     15 C          63.2081   88.9843   16.3913 C.3     1  UNL1        0.2542
     16 C          63.3367   90.3376   11.7845 C.ar    1  UNL1        0.0215
     17 C          63.5272   90.5472   10.3115 C.ar    1  UNL1       -0.0007
     18 C          64.4999   91.5781    9.8202 C.ar    1  UNL1        0.0030
     19 C          65.2820   92.3993   10.8020 C.ar    1  UNL1        0.0402
     20 C          65.0914   92.1897   12.2751 C.ar    1  UNL1        0.1761
     21 C          64.1188   91.1588   12.7662 C.ar    1  UNL1        0.1728
     22 O          64.1430   91.1761   14.2659 O.3     1  UNL1       -0.4349
     23 C          65.1306   92.2177   14.7016 C.3     1  UNL1        0.4294
     24 O          65.7168   92.8441   13.4711 O.3     1  UNL1       -0.4346
     25 C          60.8962   89.6142   12.3048 C.3     1  UNL1        0.1162
     26 O          61.0319   90.1289   13.7072 O.3     1  UNL1       -0.3820
     27 H          60.1662   90.4273   14.0273 H       1  UNL1        0.2107
     28 C          60.1110   89.4862    8.4168 C.ar    1  UNL1        0.2272
     29 C          60.2467   90.0009    9.8191 C.ar    1  UNL1        0.0559
     30 C          60.7606   89.0995   10.9024 C.ar    1  UNL1        0.0117
     31 C          61.1388   87.6836   10.5833 C.ar    1  UNL1        0.0559
     32 C          61.0031   87.1689    9.1809 C.ar    1  UNL1        0.2272
     33 N          60.4892   88.0702    8.0976 N.ar    1  UNL1       -0.1767
     34 C          59.3040   89.8317    5.9714 C.3     1  UNL1        0.2542
     35 O          59.5971   90.3876    7.3335 O.3     1  UNL1       -0.4561
     36 O          61.3813   85.7528    8.8618 O.3     1  UNL1       -0.4561
     37 C          62.6816   85.4608    8.1733 C.3     1  UNL1        0.2542
     38 C          59.4284   89.9217   12.3340 C.3     1  UNL1        0.0491
     39 C          58.4271   88.8065   12.2735 C.3     1  UNL1        0.0750
     40 N          57.7261   88.3595   13.5220 N.3     1  UNL1       -0.2702
     41 C          58.4638   88.3326   14.8277 C.3     1  UNL1        0.0897
     42 C          56.2873   87.9393   13.4647 C.3     1  UNL1        0.0897
@<TRIPOS>BOND
     1    34    35    1
     2    35    28    1
     3    28    29   ar
     4    29    30   ar
     5    30    25    1
     6    25    26    1
     7    25    38    1
     8    38    39    1
     9    39    40    1
    10    40    41    1
    11    40    42    1
    12    25     1    1
    13     1     2    1
    14     2     3   ar
    15     3     4   ar
    16     4     5   ar
    17     5     6   ar
    18     6    12    1
    19    12    13    3
    20     6     7   ar
    21     7     8   ar
    22     8     9   ar
    23     9    10   ar
    24    10    11   ar
    25    11    14    1
    26    14    15    1
    27     1    16    1
    28    16    17   ar
    29    17    18   ar
    30    18    19   ar
    31    19    20   ar
    32    20    21   ar
    33    21    22    1
    34    22    23    1
    35    23    24    1
    36    30    31   ar
    37    31    32   ar
    38    32    36    1
    39    36    37    1
    40    32    33   ar
    41    33    28   ar
    42    11     2   ar
    43    21    16   ar
    44     9     4   ar
    45    24    20    1
    46    26    27    1
@<TRIPOS>MOLECULE
*****
 42 46 0 0 0
SMALL
GASTEIGER

@<TRIPOS>ATOM
      1 C          62.3657   89.3022   12.2833 C.3     1  UNL1        0.0807
      2 C          62.8606   87.9634   12.7445 C.ar    1  UNL1        0.0375
      3 C          62.7047   86.7612   11.8611 C.ar    1  UNL1        0.0023
      4 C          63.1996   85.4223   12.3223 C.ar    1  UNL1        0.0183
      5 C          63.0437   84.2201   11.4389 C.ar    1  UNL1        0.0118
      6 C          63.5387   82.8814   11.9001 C.ar    1  UNL1        0.0685
      7 C          64.1895   82.7448   13.2446 C.ar    1  UNL1        0.0118
      8 C          64.3454   83.9470   14.1280 C.ar    1  UNL1        0.0199
      9 C          63.8505   85.2858   13.6668 C.ar    1  UNL1        0.0844
     10 N          64.0063   86.4881   14.5502 N.ar    1  UNL1       -0.2119
     11 C          63.5114   87.8268   14.0890 C.ar    1  UNL1        0.2211
     12 C          63.3828   81.6791   11.0167 C.1     1  UNL1        0.1004
     13 N          63.2269   80.4769   10.1334 N.1     1  UNL1       -0.1908
     14 O          63.6673   89.0291   14.9724 O.3     1  UNL1       -0.4563
     15 C          63.2035   88.9775   16.3979 C.3     1  UNL1        0.2542
     16 C          63.3384   90.3329   11.7920 C.ar    1  UNL1        0.0215
     17 C          63.5281   90.5431   10.3190 C.ar    1  UNL1       -0.0007
     18 C          64.5009   91.5738    9.8276 C.ar    1  UNL1        0.0030
     19 C          65.2839   92.3943   10.8093 C.ar    1  UNL1        0.0402
     20 C          65.0942   92.1840   12.2824 C.ar    1  UNL1        0.1761
     21 C          64.1215   91.1533   12.7737 C.ar    1  UNL1        0.1728
     22 O          64.1467   91.1699   14.2734 O.3     1  UNL1       -0.4349
     23 C          65.1350   92.2108   14.7089 C.3     1  UNL1        0.4294
     24 O          65.7206   92.8376   13.4783 O.3     1  UNL1       -0.4346
     25 C          60.8979   89.6103   12.3135 C.3     1  UNL1        0.1162
     26 O          61.0352   90.1267   13.7151 O.3     1  UNL1       -0.3820
     27 H          60.1699   90.4258   14.0357 H       1  UNL1        0.2107
     28 C          61.0028   87.1618    9.1921 C.ar    1  UNL1        0.2272
     29 C          61.1401   87.6781   10.5937 C.ar    1  UNL1        0.0559
     30 C          60.7607   89.0940   10.9119 C.ar    1  UNL1        0.0117
     31 C          60.2441   89.9935    9.8284 C.ar    1  UNL1        0.0559
     32 C          60.1069   89.4772    8.4268 C.ar    1  UNL1        0.2272
     33 N          60.4863   88.0613    8.1086 N.ar    1  UNL1       -0.1767
     34 C          62.6696   85.4565    8.1605 C.3     1  UNL1        0.2542
     35 O          61.3822   85.7458    8.8739 O.3     1  UNL1       -0.4561
     36 O          59.5903   90.3768    7.3433 O.3     1  UNL1       -0.4561
     37 C          59.3415   89.8294    5.9691 C.3     1  UNL1        0.2542
     38 C          59.4302   89.9184   12.3437 C.3     1  UNL1        0.0491
     39 C          58.4284   88.8040   12.2777 C.3     1  UNL1        0.0750
     40 N          57.7227   88.3552   13.5228 N.3     1  UNL1       -0.2702
     41 C          56.2825   87.9404   13.4606 C.3     1  UNL1        0.0897
     42 C          58.4570   88.3211   14.8303 C.3     1  UNL1        0.0897
@<TRIPOS>BOND
     1    34    35    1
     2    35    28    1
     3    28    29   ar
     4    29    30   ar
     5    30    25    1
     6    25    26    1
     7    25    38    1
     8    38    39    1
     9    39    40    1
    10    40    41    1
    11    40    42    1
    12    25     1    1
    13     1     2    1
    14     2     3   ar
    15     3     4   ar
    16     4     5   ar
    17     5     6   ar
    18     6    12    1
    19    12    13    3
    20     6     7   ar
    21     7     8   ar
    22     8     9   ar
    23     9    10   ar
    24    10    11   ar
    25    11    14    1
    26    14    15    1
    27     1    16    1
    28    16    17   ar
    29    17    18   ar
    30    18    19   ar
    31    19    20   ar
    32    20    21   ar
    33    21    22    1
    34    22    23    1
    35    23    24    1
    36    30    31   ar
    37    31    32   ar
    38    32    36    1
    39    36    37    1
    40    32    33   ar
    41    33    28   ar
    42    11     2   ar
    43    21    16   ar
    44     9     4   ar
    45    24    20    1
    46    26    27    1
@<TRIPOS>MOLECULE
*****
 42 46 0 0 0
SMALL
GASTEIGER

@<TRIPOS>ATOM
      1 C          61.9551   88.1513   10.6678 C.3     1  UNL1        0.0807
      2 C          62.5087   87.2060   11.6925 C.ar    1  UNL1        0.0375
      3 C          62.2199   85.7376   11.5918 C.ar    1  UNL1        0.0023
      4 C          62.7734   84.7923   12.6166 C.ar    1  UNL1        0.0183
      5 C          62.4846   83.3238   12.5159 C.ar    1  UNL1        0.0118
      6 C          63.0382   82.3786   13.5406 C.ar    1  UNL1        0.0685
      7 C          63.8806   82.9019   14.6660 C.ar    1  UNL1        0.0118
      8 C          64.1694   84.3703   14.7667 C.ar    1  UNL1        0.0199
      9 C          63.6158   85.3155   13.7420 C.ar    1  UNL1        0.0844
     10 N          63.9047   86.7841   13.8427 N.ar    1  UNL1       -0.2119
     11 C          63.3511   87.7293   12.8180 C.ar    1  UNL1        0.2211
     12 C          62.7493   80.9101   13.4399 C.1     1  UNL1        0.1004
     13 N          62.4605   79.4416   13.3392 N.1     1  UNL1       -0.1908
     14 O          63.6399   89.1978   12.9186 O.3     1  UNL1       -0.4563
     15 C          63.5024   89.9006   14.2367 C.3     1  UNL1        0.2542
     16 C          61.0994   87.6302    9.5515 C.ar    1  UNL1        0.0215
     17 C          59.7263   88.1933    9.3336 C.ar    1  UNL1       -0.0007
     18 C          58.8704   87.6722    8.2173 C.ar    1  UNL1        0.0030
     19 C          59.3877   86.5880    7.3190 C.ar    1  UNL1        0.0402
     20 C          60.7609   86.0250    7.5369 C.ar    1  UNL1        0.1761
     21 C          61.6167   86.5461    8.6532 C.ar    1  UNL1        0.1728
     22 O          62.9192   85.8027    8.6245 O.3     1  UNL1       -0.4349
     23 C          62.8684   84.8221    7.4906 C.3     1  UNL1        0.4294
     24 O          61.5344   84.9595    6.8184 O.3     1  UNL1       -0.4346
     25 C          62.2574   89.6177   10.7594 C.3     1  UNL1        0.1162
     26 O          63.6160   89.3744   10.1720 O.3     1  UNL1       -0.3820
     27 H          64.0931   90.2159   10.1012 H       1  UNL1        0.2107
     28 C          58.8048   91.3741   11.6225 C.ar    1  UNL1        0.2272
     29 C          60.1634   91.1307   11.0352 C.ar    1  UNL1        0.0559
     30 C          60.8988   89.8610   11.3468 C.ar    1  UNL1        0.0117
     31 C          60.2756   88.8347   12.2457 C.ar    1  UNL1        0.0559
     32 C          58.9170   89.0781   12.8331 C.ar    1  UNL1        0.2272
     33 N          58.1816   90.3477   12.5215 N.ar    1  UNL1       -0.1767
     34 C          58.1512   93.8083   12.2528 C.3     1  UNL1        0.2542
     35 O          58.0694   92.6438   11.3109 O.3     1  UNL1       -0.4561
     36 O          58.2937   88.0517   13.7321 O.3     1  UNL1       -0.4561
     37 C          56.8139   87.8117   13.6836 C.3     1  UNL1        0.2542
     38 C          62.5596   91.0841   10.8510 C.3     1  UNL1        0.0491
     39 C          63.7641   91.6464   10.1561 C.3     1  UNL1        0.0750
     40 N          64.8247   92.3529   10.9473 N.3     1  UNL1       -0.2702
     41 C          65.7920   93.2674   10.2559 C.3     1  UNL1        0.0897
     42 C          64.9181   92.1448   12.4298 C.3     1  UNL1        0.0897
@<TRIPOS>BOND
     1    34    35    1
     2    35    28    1
     3    28    29   ar
     4    29    30   ar
     5    30    25    1
     6    25    26    1
     7    25    38    1
     8    38    39    1
     9    39    40    1
    10    40    41    1
    11    40    42    1
    12    25     1    1
    13     1     2    1
    14     2     3   ar
    15     3     4   ar
    16     4     5   ar
    17     5     6   ar
    18     6    12    1
    19    12    13    3
    20     6     7   ar
    21     7     8   ar
    22     8     9   ar
    23     9    10   ar
    24    10    11   ar
    25    11    14    1
    26    14    15    1
    27     1    16    1
    28    16    17   ar
    29    17    18   ar
    30    18    19   ar
    31    19    20   ar
    32    20    21   ar
    33    21    22    1
    34    22    23    1
    35    23    24    1
    36    30    31   ar
    37    31    32   ar
    38    32    36    1
    39    36    37    1
    40    32    33   ar
    41    33    28   ar
    42    11     2   ar
    43    21    16   ar
    44     9     4   ar
    45    24    20    1
    46    26    27    1
@<TRIPOS>MOLECULE
*****
 42 46 0 0 0
SMALL
GASTEIGER

@<TRIPOS>ATOM
      1 C          61.9501   88.1499   10.6859 C.3     1  UNL1        0.0807
      2 C          62.5004   87.2081   11.7156 C.ar    1  UNL1        0.0375
      3 C          62.2149   85.7389   11.6171 C.ar    1  UNL1        0.0023
      4 C          62.7652   84.7971   12.6469 C.ar    1  UNL1        0.0183
      5 C          62.4796   83.3279   12.5483 C.ar    1  UNL1        0.0118
      6 C          63.0299   82.3863   13.5781 C.ar    1  UNL1        0.0685
      7 C          63.8658   82.9138   14.7063 C.ar    1  UNL1        0.0118
      8 C          64.1513   84.3831   14.8049 C.ar    1  UNL1        0.0199
      9 C          63.6010   85.3247   13.7751 C.ar    1  UNL1        0.0844
     10 N          63.8865   86.7941   13.8737 N.ar    1  UNL1       -0.2119
     11 C          63.3362   87.7357   12.8439 C.ar    1  UNL1        0.2211
     12 C          62.7444   80.9169   13.4795 C.1     1  UNL1        0.1004
     13 N          62.4589   79.4477   13.3810 N.1     1  UNL1       -0.1908
     14 O          63.6218   89.2050   12.9424 O.3     1  UNL1       -0.4563
     15 C          63.4785   89.9103   14.2585 C.3     1  UNL1        0.2542
     16 C          61.0964   87.6252    9.5697 C.ar    1  UNL1        0.0215
     17 C          59.7234   88.1869    9.3479 C.ar    1  UNL1       -0.0007
     18 C          58.8697   87.6622    8.2317 C.ar    1  UNL1        0.0030
     19 C          59.3890   86.5757    7.3373 C.ar    1  UNL1        0.0402
     20 C          60.7621   86.0140    7.5591 C.ar    1  UNL1        0.1761
     21 C          61.6158   86.5387    8.6753 C.ar    1  UNL1        0.1728
     22 O          62.9187   85.7959    8.6509 O.3     1  UNL1       -0.4349
     23 C          62.8703   84.8121    7.5197 C.3     1  UNL1        0.4294
     24 O          61.5374   84.9469    6.8449 O.3     1  UNL1       -0.4346
     25 C          62.2535   89.6163   10.7723 C.3     1  UNL1        0.1162
     26 O          63.6119   89.3699   10.1860 O.3     1  UNL1       -0.3820
     27 H          64.0897   90.2108   10.1123 H       1  UNL1        0.2107
     28 C          58.9059   89.0799   12.8354 C.ar    1  UNL1        0.2272
     29 C          60.2644   88.8334   12.2490 C.ar    1  UNL1        0.0559
     30 C          60.8950   89.8628   11.3587 C.ar    1  UNL1        0.0117
     31 C          60.1672   91.1386   11.0548 C.ar    1  UNL1        0.0559
     32 C          58.8087   91.3851   11.6412 C.ar    1  UNL1        0.2272
     33 N          58.1781   90.3557   12.5315 N.ar    1  UNL1       -0.1767
     34 C          56.7993   87.7947   13.6481 C.3     1  UNL1        0.2542
     35 O          58.2753   88.0504   13.7257 O.3     1  UNL1       -0.4561
     36 O          58.0809   92.6610   11.3372 O.3     1  UNL1       -0.4561
     37 C          58.1946   93.8299   12.2704 C.3     1  UNL1        0.2542
     38 C          62.5569   91.0828   10.8588 C.3     1  UNL1        0.0491
     39 C          63.7480   91.6458   10.1418 C.3     1  UNL1        0.0750
     40 N          64.8286   92.3421   10.9148 N.3     1  UNL1       -0.2702
     41 C          64.9800   92.0901   12.3857 C.3     1  UNL1        0.0897
     42 C          65.7578   93.2904   10.2169 C.3     1  UNL1        0.0897
@<TRIPOS>BOND
     1    34    35    1
     2    35    28    1
     3    28    29   ar
     4    29    30   ar
     5    30    25    1
     6    25    26    1
     7    25    38    1
     8    38    39    1
     9    39    40    1
    10    40    41    1
    11    40    42    1
    12    25     1    1
    13     1     2    1
    14     2     3   ar
    15     3     4   ar
    16     4     5   ar
    17     5     6   ar
    18     6    12    1
    19    12    13    3
    20     6     7   ar
    21     7     8   ar
    22     8     9   ar
    23     9    10   ar
    24    10    11   ar
    25    11    14    1
    26    14    15    1
    27     1    16    1
    28    16    17   ar
    29    17    18   ar
    30    18    19   ar
    31    19    20   ar
    32    20    21   ar
    33    21    22    1
    34    22    23    1
    35    23    24    1
    36    30    31   ar
    37    31    32   ar
    38    32    36    1
    39    36    37    1
    40    32    33   ar
    41    33    28   ar
    42    11     2   ar
    43    21    16   ar
    44     9     4   ar
    45    24    20    1
    46    26    27    1
@<TRIPOS>MOLECULE
*****
 42 46 0 0 0
SMALL
GASTEIGER

@<TRIPOS>ATOM
      1 C          59.1210   93.5853   -3.2211 C.3     1  UNL1        0.0807
      2 C          59.4503   93.9944   -1.8160 C.ar    1  UNL1        0.0375
      3 C          59.1946   93.0487   -0.6801 C.ar    1  UNL1        0.0023
      4 C          59.5239   93.4578    0.7250 C.ar    1  UNL1        0.0183
      5 C          59.2682   92.5121    1.8609 C.ar    1  UNL1        0.0118
      6 C          59.5975   92.9212    3.2659 C.ar    1  UNL1        0.0685
      7 C          60.1825   94.2759    3.5351 C.ar    1  UNL1        0.0118
      8 C          60.4382   95.2216    2.3992 C.ar    1  UNL1        0.0199
      9 C          60.1089   94.8125    0.9942 C.ar    1  UNL1        0.0844
     10 N          60.3647   95.7582   -0.1418 N.ar    1  UNL1       -0.2119
     11 C          60.0353   95.3491   -1.5469 C.ar    1  UNL1        0.2211
     12 C          59.3417   91.9755    4.4019 C.1     1  UNL1        0.1004
     13 N          59.0860   91.0299    5.5378 N.1     1  UNL1       -0.1908
     14 O          60.2911   96.2948   -2.6828 O.3     1  UNL1       -0.4563
     15 C          61.6670   96.8510   -2.9004 C.3     1  UNL1        0.2542
     16 C          60.0834   93.8802   -4.3332 C.ar    1  UNL1        0.0215
     17 C          59.5820   94.4462   -5.6286 C.ar    1  UNL1       -0.0007
     18 C          60.5444   94.7411   -6.7408 C.ar    1  UNL1        0.0030
     19 C          62.0083   94.4700   -6.5574 C.ar    1  UNL1        0.0402
     20 C          62.5097   93.9039   -5.2619 C.ar    1  UNL1        0.1761
     21 C          61.5473   93.6090   -4.1499 C.ar    1  UNL1        0.1728
     22 O          62.3290   93.0581   -2.9942 O.3     1  UNL1       -0.4349
     23 C          63.7745   93.0126   -3.3921 C.3     1  UNL1        0.4294
     24 O          63.8862   93.5353   -4.7937 O.3     1  UNL1       -0.4346
     25 C          57.8292   92.8814   -3.5141 C.3     1  UNL1        0.1162
     26 O          58.5293   91.5580   -3.4213 O.3     1  UNL1       -0.3820
     27 H          57.8926   90.8436   -3.5799 H       1  UNL1        0.2107
     28 C          55.9060   96.1886   -2.4588 C.ar    1  UNL1        0.2272
     29 C          56.6061   94.8652   -2.3660 C.ar    1  UNL1        0.0559
     30 C          57.1291   94.2048   -3.6070 C.ar    1  UNL1        0.0117
     31 C          56.9522   94.8677   -4.9408 C.ar    1  UNL1        0.0559
     32 C          56.2521   96.1910   -5.0336 C.ar    1  UNL1        0.2272
     33 N          55.7290   96.8515   -3.7926 N.ar    1  UNL1       -0.1767
     34 C          53.9161   96.8062   -0.9067 C.3     1  UNL1        0.2542
     35 O          55.3829   96.8490   -1.2177 O.3     1  UNL1       -0.4561
     36 O          56.0751   96.8539   -6.3676 O.3     1  UNL1       -0.4561
     37 C          57.0910   96.6426   -7.4507 C.3     1  UNL1        0.2542
     38 C          56.5374   92.1775   -3.8071 C.3     1  UNL1        0.0491
     39 C          55.8179   92.4368   -5.0974 C.3     1  UNL1        0.0750
     40 N          56.0119   91.5130   -6.2631 N.3     1  UNL1       -0.2702
     41 C          54.9197   90.5636   -6.6576 C.3     1  UNL1        0.0897
     42 C          57.2981   91.5386   -7.0344 C.3     1  UNL1        0.0897
@<TRIPOS>BOND
     1    34    35    1
     2    35    28    1
     3    28    29   ar
     4    29    30   ar
     5    30    25    1
     6    25    26    1
     7    25    38    1
     8    38    39    1
     9    39    40    1
    10    40    41    1
    11    40    42    1
    12    25     1    1
    13     1     2    1
    14     2     3   ar
    15     3     4   ar
    16     4     5   ar
    17     5     6   ar
    18     6    12    1
    19    12    13    3
    20     6     7   ar
    21     7     8   ar
    22     8     9   ar
    23     9    10   ar
    24    10    11   ar
    25    11    14    1
    26    14    15    1
    27     1    16    1
    28    16    17   ar
    29    17    18   ar
    30    18    19   ar
    31    19    20   ar
    32    20    21   ar
    33    21    22    1
    34    22    23    1
    35    23    24    1
    36    30    31   ar
    37    31    32   ar
    38    32    36    1
    39    36    37    1
    40    32    33   ar
    41    33    28   ar
    42    11     2   ar
    43    21    16   ar
    44     9     4   ar
    45    24    20    1
    46    26    27    1
