@<TRIPOS>MOLECULE
*****
 36 39 0 0 0
SMALL
GASTEIGER

@<TRIPOS>ATOM
      1 C          67.6026   91.9542   16.5175 C.3     1  UNL1        0.0518
      2 C          66.7576   91.8037   15.2873 C.ar    1  UNL1        0.0568
      3 N          65.4157   91.1392   15.3758 N.ar    1  UNL1       -0.2456
      4 C          64.5708   90.9887   14.1456 C.ar    1  UNL1        0.1319
      5 C          65.0676   91.5027   12.8269 C.ar    1  UNL1        0.0196
      6 C          66.4094   92.1672   12.7384 C.ar    1  UNL1       -0.0015
      7 C          67.2544   92.3177   13.9687 C.ar    1  UNL1        0.0068
      8 C          64.0204   91.2140   11.7925 C.3     1  UNL1        0.1226
      9 N          62.8763   90.5216   12.4719 N.am    1  UNL1       -0.2623
     10 C          63.2165   90.3823   13.9262 C.2     1  UNL1        0.2671
     11 O          62.3537   89.7480   14.9766 O.2     1  UNL1       -0.2682
     12 C          66.9063   92.6813   11.4197 C.ar    1  UNL1        0.0102
     13 C          67.7054   91.7868   10.5190 C.ar    1  UNL1        0.0017
     14 C          68.2023   92.3008    9.2004 C.ar    1  UNL1        0.0114
     15 C          67.9002   93.7093    8.7825 C.ar    1  UNL1        0.0585
     16 CL         68.3972   94.2233    7.4638 Cl      1  UNL1       -0.0822
     17 C          67.1012   94.6039    9.6832 C.ar    1  UNL1        0.0228
     18 C          66.6043   94.0899   11.0019 C.ar    1  UNL1        0.0585
     19 CL         65.8052   94.9845   11.9026 Cl      1  UNL1       -0.0822
     20 C          68.5963   92.9823   13.8802 C.3     1  UNL1        0.0934
     21 N          69.8349   92.1524   13.7157 N.3     1  UNL1       -0.3174
     22 H          69.9791   91.5873   14.5525 H       1  UNL1        0.1192
     23 H          70.6386   92.7648   13.5763 H       1  UNL1        0.1192
     24 C          61.6137   90.0510   11.8128 C.3     1  UNL1        0.1798
     25 C          61.6836   89.2081   10.5739 C.2     1  UNL1        0.2460
     26 O          61.3585   89.8092    9.2386 O.2     1  UNL1       -0.2730
     27 N          62.0786   87.7642   10.6703 N.am    1  UNL1       -0.2752
     28 C          62.4037   87.1632   12.0056 C.3     1  UNL1        0.1126
     29 C          62.7986   85.7194   12.1021 C.3     1  UNL1        0.1169
     30 N          62.8685   84.8766   10.8632 N.3     1  UNL1       -0.1559
     31 C          62.5433   85.4777    9.5279 C.3     1  UNL1        0.1169
     32 C          62.1484   86.9215    9.4314 C.3     1  UNL1        0.1126
     33 S          63.2634   83.4328   10.9597 S.O2    1  UNL1        0.0458
     34 C          63.6584   81.9889   11.0562 C.3     1  UNL1        0.1960
     35 O          62.6219   83.3477   12.3129 O.2     1  UNL1       -0.1572
     36 O          63.9049   83.5178    9.6065 O.2     1  UNL1       -0.1572
@<TRIPOS>BOND
     1     1     2    1
     2     2     3   ar
     3     3     4   ar
     4     4     5   ar
     5     5     6   ar
     6     6    12    1
     7    12    13   ar
     8    13    14   ar
     9    14    15   ar
    10    15    16    1
    11    15    17   ar
    12    17    18   ar
    13    18    19    1
    14     6     7   ar
    15     7    20    1
    16    20    21    1
    17     5     8    1
    18     8     9    1
    19     9    24    1
    20    24    25    1
    21    25    26    2
    22    25    27   am
    23    27    28    1
    24    28    29    1
    25    29    30    1
    26    30    33    1
    27    33    34    1
    28    33    35    2
    29    33    36    2
    30    30    31    1
    31    31    32    1
    32     9    10   am
    33    10    11    2
    34     7     2   ar
    35    32    27    1
    36    10     4    1
    37    18    12   ar
    38    21    22    1
    39    21    23    1
@<TRIPOS>MOLECULE
*****
 36 39 0 0 0
SMALL
GASTEIGER

@<TRIPOS>ATOM
      1 C          59.5831   89.0985    8.4149 C.3     1  UNL1        0.0518
      2 C          60.6108   88.7988    9.4656 C.ar    1  UNL1        0.0568
      3 N          61.2442   89.9191   10.2362 N.ar    1  UNL1       -0.2456
      4 C          62.2719   89.6196   11.2869 C.ar    1  UNL1        0.1319
      5 C          62.6663   88.1997   11.5670 C.ar    1  UNL1        0.0196
      6 C          62.0330   87.0794   10.7965 C.ar    1  UNL1       -0.0015
      7 C          61.0052   87.3791    9.7457 C.ar    1  UNL1        0.0068
      8 C          63.7003   88.2116   12.6536 C.3     1  UNL1        0.1226
      9 N          63.9449   89.6388   13.0450 N.am    1  UNL1       -0.2623
     10 C          63.0622   90.5090   12.2004 C.2     1  UNL1        0.2671
     11 O          62.9835   92.0058   12.2589 O.2     1  UNL1       -0.2682
     12 C          62.4273   85.6595   11.0766 C.ar    1  UNL1        0.0102
     13 C          62.1263   85.0472   12.4124 C.ar    1  UNL1        0.0017
     14 C          62.5206   83.6273   12.6925 C.ar    1  UNL1        0.0114
     15 C          63.2159   82.8198   11.6369 C.ar    1  UNL1        0.0585
     16 CL         63.6102   81.4000   11.9170 Cl      1  UNL1       -0.0822
     17 C          63.5170   83.4322   10.3011 C.ar    1  UNL1        0.0228
     18 C          63.1227   84.8521   10.0209 C.ar    1  UNL1        0.0585
     19 CL         63.4237   85.4644    8.6851 Cl      1  UNL1       -0.0822
     20 C          60.3718   86.2587    8.9751 C.3     1  UNL1        0.0934
     21 N          60.6895   86.0753    7.5207 N.3     1  UNL1       -0.3174
     22 H          60.3313   86.8703    6.9915 H       1  UNL1        0.1192
     23 H          60.2530   85.2175    7.1828 H       1  UNL1        0.1192
     24 C          64.9040   90.1127   14.0966 C.3     1  UNL1        0.1798
     25 C          65.1606   91.5802   14.2710 C.2     1  UNL1        0.2460
     26 O          64.8851   92.2380   15.5906 O.2     1  UNL1       -0.2730
     27 N          65.6928   92.3900   13.1260 N.am    1  UNL1       -0.2752
     28 C          65.9683   91.7321   11.8064 C.3     1  UNL1        0.1126
     29 C          66.5004   92.5418   10.6613 C.3     1  UNL1        0.1169
     30 N          66.7570   94.0093   10.8359 N.3     1  UNL1       -0.1559
     31 C          66.4815   94.6672   12.1555 C.3     1  UNL1        0.1169
     32 C          65.9493   93.8575   13.3006 C.3     1  UNL1        0.1126
     33 S          67.2891   94.8190    9.6908 S.O2    1  UNL1        0.0458
     34 C          67.8212   95.6288    8.5456 C.3     1  UNL1        0.1960
     35 O          66.0370   95.6449    9.6929 O.2     1  UNL1       -0.1572
     36 O          68.5412   93.9932    9.6886 O.2     1  UNL1       -0.1572
@<TRIPOS>BOND
     1     1     2    1
     2     2     3   ar
     3     3     4   ar
     4     4     5   ar
     5     5     6   ar
     6     6    12    1
     7    12    13   ar
     8    13    14   ar
     9    14    15   ar
    10    15    16    1
    11    15    17   ar
    12    17    18   ar
    13    18    19    1
    14     6     7   ar
    15     7    20    1
    16    20    21    1
    17     5     8    1
    18     8     9    1
    19     9    24    1
    20    24    25    1
    21    25    26    2
    22    25    27   am
    23    27    28    1
    24    28    29    1
    25    29    30    1
    26    30    33    1
    27    33    34    1
    28    33    35    2
    29    33    36    2
    30    30    31    1
    31    31    32    1
    32     9    10   am
    33    10    11    2
    34     7     2   ar
    35    32    27    1
    36    10     4    1
    37    18    12   ar
    38    21    22    1
    39    21    23    1
@<TRIPOS>MOLECULE
*****
 36 39 0 0 0
SMALL
GASTEIGER

@<TRIPOS>ATOM
      1 C          63.4173   82.9935   14.9819 C.3     1  UNL1        0.0518
      2 C          63.3212   84.2576   14.1800 C.ar    1  UNL1        0.0568
      3 N          63.5828   85.5821   14.8337 N.ar    1  UNL1       -0.2456
      4 C          63.4866   86.8462   14.0319 C.ar    1  UNL1        0.1319
      5 C          63.1289   86.7858   12.5764 C.ar    1  UNL1        0.0196
      6 C          62.8673   85.4613   11.9228 C.ar    1  UNL1       -0.0015
      7 C          62.9635   84.1972   12.7246 C.ar    1  UNL1        0.0068
      8 C          63.1092   88.1884   12.0453 C.3     1  UNL1        0.1226
      9 N          63.4547   89.1157   13.1725 N.am    1  UNL1       -0.2623
     10 C          63.6880   88.2862   14.4003 C.2     1  UNL1        0.2671
     11 O          64.0577   88.8055   15.7581 O.2     1  UNL1       -0.2682
     12 C          62.5096   85.4008   10.4673 C.ar    1  UNL1        0.0102
     13 C          63.3845   84.6461    9.5107 C.ar    1  UNL1        0.0017
     14 C          63.0268   84.5855    8.0552 C.ar    1  UNL1        0.0114
     15 C          61.7943   85.2797    7.5564 C.ar    1  UNL1        0.0585
     16 CL         61.4366   85.2191    6.1009 Cl      1  UNL1       -0.0822
     17 C          60.9194   86.0344    8.5129 C.ar    1  UNL1        0.0228
     18 C          61.2770   86.0949    9.9684 C.ar    1  UNL1        0.0585
     19 CL         60.4021   86.8497   10.9249 Cl      1  UNL1       -0.0822
     20 C          62.7019   82.8726   12.0709 C.3     1  UNL1        0.0934
     21 N          63.8483   81.9761   11.7078 N.3     1  UNL1       -0.3174
     22 H          64.4083   82.4184   10.9790 H       1  UNL1        0.1192
     23 H          63.4881   81.0851   11.3660 H       1  UNL1        0.1192
     24 C          63.5503   90.6103   13.0870 C.3     1  UNL1        0.1798
     25 C          64.8550   91.2956   13.3662 C.2     1  UNL1        0.2460
     26 O          65.6018   90.9994   14.6329 O.2     1  UNL1       -0.2730
     27 N          65.4131   92.2772   12.3787 N.am    1  UNL1       -0.2752
     28 C          64.6663   92.5734   11.1120 C.3     1  UNL1        0.1126
     29 C          65.2243   93.5550   10.1245 C.3     1  UNL1        0.1169
     30 N          66.5290   94.2402   10.4037 N.3     1  UNL1       -0.1559
     31 C          67.2758   93.9440   11.6704 C.3     1  UNL1        0.1169
     32 C          66.7178   92.9625   12.6580 C.3     1  UNL1        0.1126
     33 S          67.0870   95.2218    9.4162 S.O2    1  UNL1        0.0458
     34 C          67.6451   96.2033    8.4286 C.3     1  UNL1        0.1960
     35 O          68.3751   94.4541    9.3809 O.2     1  UNL1       -0.1572
     36 O          65.7989   95.9895    9.4514 O.2     1  UNL1       -0.1572
@<TRIPOS>BOND
     1     1     2    1
     2     2     3   ar
     3     3     4   ar
     4     4     5   ar
     5     5     6   ar
     6     6    12    1
     7    12    13   ar
     8    13    14   ar
     9    14    15   ar
    10    15    16    1
    11    15    17   ar
    12    17    18   ar
    13    18    19    1
    14     6     7   ar
    15     7    20    1
    16    20    21    1
    17     5     8    1
    18     8     9    1
    19     9    24    1
    20    24    25    1
    21    25    26    2
    22    25    27   am
    23    27    28    1
    24    28    29    1
    25    29    30    1
    26    30    33    1
    27    33    34    1
    28    33    35    2
    29    33    36    2
    30    30    31    1
    31    31    32    1
    32     9    10   am
    33    10    11    2
    34     7     2   ar
    35    32    27    1
    36    10     4    1
    37    18    12   ar
    38    21    22    1
    39    21    23    1
@<TRIPOS>MOLECULE
*****
 36 39 0 0 0
SMALL
GASTEIGER

@<TRIPOS>ATOM
      1 C          63.7066   83.3298   14.3081 C.3     1  UNL1        0.0518
      2 C          63.4274   84.5223   13.4420 C.ar    1  UNL1        0.0568
      3 N          63.4934   85.9034   14.0235 N.ar    1  UNL1       -0.2456
      4 C          63.2142   87.0959   13.1575 C.ar    1  UNL1        0.1319
      5 C          62.8690   86.9073   11.7100 C.ar    1  UNL1        0.0196
      6 C          62.8029   85.5262   11.1285 C.ar    1  UNL1       -0.0015
      7 C          63.0821   84.3337   11.9946 C.ar    1  UNL1        0.0068
      8 C          62.6453   88.2622   11.1065 C.3     1  UNL1        0.1226
      9 N          62.8522   89.2881   12.1810 N.am    1  UNL1       -0.2623
     10 C          63.2039   88.5674   13.4486 C.2     1  UNL1        0.2671
     11 O          63.4942   89.2060   14.7744 O.2     1  UNL1       -0.2682
     12 C          62.4577   85.3375    9.6810 C.ar    1  UNL1        0.0102
     13 C          63.4245   84.6503    8.7629 C.ar    1  UNL1        0.0017
     14 C          63.0793   84.4616    7.3154 C.ar    1  UNL1        0.0114
     15 C          61.7673   84.9601    6.7861 C.ar    1  UNL1        0.0585
     16 CL         61.4222   84.7713    5.3386 Cl      1  UNL1       -0.0822
     17 C          60.8005   85.6473    7.7043 C.ar    1  UNL1        0.0228
     18 C          61.1457   85.8360    9.1518 C.ar    1  UNL1        0.0585
     19 CL         60.1789   86.5232   10.0699 Cl      1  UNL1       -0.0822
     20 C          63.0161   82.9525   11.4131 C.3     1  UNL1        0.0934
     21 N          64.2754   82.2555   10.9909 N.3     1  UNL1       -0.3174
     22 H          64.6914   82.7525   10.2033 H       1  UNL1        0.1192
     23 H          64.0574   81.2988   10.7123 H       1  UNL1        0.1192
     24 C          62.7292   90.7740   12.0167 C.3     1  UNL1        0.1798
     25 C          63.8995   91.5739   11.5263 C.2     1  UNL1        0.2460
     26 O          63.9696   91.9963   10.0887 O.2     1  UNL1       -0.2730
     27 N          64.9999   91.9513   12.4733 N.am    1  UNL1       -0.2752
     28 C          64.9298   91.5288   13.9109 C.3     1  UNL1        0.1126
     29 C          66.0301   91.9061   14.8580 C.3     1  UNL1        0.1169
     30 N          67.2004   92.7059   14.3675 N.3     1  UNL1       -0.1559
     31 C          67.2704   93.1284   12.9299 C.3     1  UNL1        0.1169
     32 C          66.1702   92.7511   11.9828 C.3     1  UNL1        0.1126
     33 S          68.3007   93.0833   15.3146 S.O2    1  UNL1        0.0458
     34 C          69.4009   93.4607   16.2618 C.3     1  UNL1        0.1960
     35 O          67.2813   93.4644   16.3469 O.2     1  UNL1       -0.1572
     36 O          69.3200   92.7022   14.2823 O.2     1  UNL1       -0.1572
@<TRIPOS>BOND
     1     1     2    1
     2     2     3   ar
     3     3     4   ar
     4     4     5   ar
     5     5     6   ar
     6     6    12    1
     7    12    13   ar
     8    13    14   ar
     9    14    15   ar
    10    15    16    1
    11    15    17   ar
    12    17    18   ar
    13    18    19    1
    14     6     7   ar
    15     7    20    1
    16    20    21    1
    17     5     8    1
    18     8     9    1
    19     9    24    1
    20    24    25    1
    21    25    26    2
    22    25    27   am
    23    27    28    1
    24    28    29    1
    25    29    30    1
    26    30    33    1
    27    33    34    1
    28    33    35    2
    29    33    36    2
    30    30    31    1
    31    31    32    1
    32     9    10   am
    33    10    11    2
    34     7     2   ar
    35    32    27    1
    36    10     4    1
    37    18    12   ar
    38    21    22    1
    39    21    23    1
@<TRIPOS>MOLECULE
*****
 36 39 0 0 0
SMALL
GASTEIGER

@<TRIPOS>ATOM
      1 C          67.1742   92.9749   12.9636 C.3     1  UNL1        0.0518
      2 C          65.9562   92.1086   12.8354 C.ar    1  UNL1        0.0568
      3 N          65.1047   92.1894   11.6032 N.ar    1  UNL1       -0.2456
      4 C          63.8869   91.3232   11.4750 C.ar    1  UNL1        0.1319
      5 C          63.5205   90.3761   12.5790 C.ar    1  UNL1        0.0196
      6 C          64.3720   90.2953   13.8113 C.ar    1  UNL1       -0.0015
      7 C          65.5899   91.1616   13.9394 C.ar    1  UNL1        0.0068
      8 C          62.2710   89.6522   12.1733 C.3     1  UNL1        0.1226
      9 N          61.8652   90.1519   10.8184 N.am    1  UNL1       -0.2623
     10 C          62.8638   91.1846   10.3869 C.2     1  UNL1        0.2671
     11 O          62.8430   91.9451    9.0941 O.2     1  UNL1       -0.2682
     12 C          64.0057   89.3483   14.9154 C.ar    1  UNL1        0.0102
     13 C          64.2227   87.8742   14.7419 C.ar    1  UNL1        0.0017
     14 C          63.8564   86.9271   15.8459 C.ar    1  UNL1        0.0114
     15 C          63.2732   87.4542   17.1234 C.ar    1  UNL1        0.0585
     16 CL         62.9069   86.5071   18.2274 Cl      1  UNL1       -0.0822
     17 C          63.0562   88.9282   17.2969 C.ar    1  UNL1        0.0228
     18 C          63.4225   89.8753   16.1929 C.ar    1  UNL1        0.0585
     19 CL         63.2055   91.3493   16.3664 Cl      1  UNL1       -0.0822
     20 C          66.4415   91.0808   15.1717 C.3     1  UNL1        0.0934
     21 N          66.5682   92.2714   16.0752 N.3     1  UNL1       -0.3174
     22 H          67.0519   93.0222   15.5824 H       1  UNL1        0.1192
     23 H          67.0999   92.0125   16.9063 H       1  UNL1        0.1192
     24 C          60.6704   89.6984   10.0330 C.3     1  UNL1        0.1798
     25 C          60.7747   88.5042    9.1314 C.2     1  UNL1        0.2460
     26 O          60.2237   88.5662    7.7376 O.2     1  UNL1       -0.2730
     27 N          61.4301   87.2478    9.6235 N.am    1  UNL1       -0.2752
     28 C          61.9811   87.1857   11.0172 C.3     1  UNL1        0.1126
     29 C          62.6365   85.9294   11.5094 C.3     1  UNL1        0.1169
     30 N          62.7408   84.7352   10.6077 N.3     1  UNL1       -0.1559
     31 C          62.1898   84.7973    9.2140 C.3     1  UNL1        0.1169
     32 C          61.5344   86.0536    8.7218 C.3     1  UNL1        0.1126
     33 S          63.3961   83.4789   11.0999 S.O2    1  UNL1        0.0458
     34 C          64.0514   82.2226   11.5922 C.3     1  UNL1        0.1960
     35 O          62.7137   83.6423   12.4257 O.2     1  UNL1       -0.1572
     36 O          64.0785   83.3155    9.7742 O.2     1  UNL1       -0.1572
@<TRIPOS>BOND
     1     1     2    1
     2     2     3   ar
     3     3     4   ar
     4     4     5   ar
     5     5     6   ar
     6     6    12    1
     7    12    13   ar
     8    13    14   ar
     9    14    15   ar
    10    15    16    1
    11    15    17   ar
    12    17    18   ar
    13    18    19    1
    14     6     7   ar
    15     7    20    1
    16    20    21    1
    17     5     8    1
    18     8     9    1
    19     9    24    1
    20    24    25    1
    21    25    26    2
    22    25    27   am
    23    27    28    1
    24    28    29    1
    25    29    30    1
    26    30    33    1
    27    33    34    1
    28    33    35    2
    29    33    36    2
    30    30    31    1
    31    31    32    1
    32     9    10   am
    33    10    11    2
    34     7     2   ar
    35    32    27    1
    36    10     4    1
    37    18    12   ar
    38    21    22    1
    39    21    23    1
@<TRIPOS>MOLECULE
*****
 36 39 0 0 0
SMALL
GASTEIGER

@<TRIPOS>ATOM
      1 C          64.5698   81.5853   10.3430 C.3     1  UNL1        0.0518
      2 C          63.8494   82.8416   10.7337 C.ar    1  UNL1        0.0568
      3 N          63.1149   83.6384    9.6965 N.ar    1  UNL1       -0.2456
      4 C          62.3945   84.8947   10.0872 C.ar    1  UNL1        0.1319
      5 C          62.4086   85.3543   11.5150 C.ar    1  UNL1        0.0196
      6 C          63.1430   84.5576   12.5521 C.ar    1  UNL1       -0.0015
      7 C          63.8635   83.3012   12.1614 C.ar    1  UNL1        0.0068
      8 C          61.6140   86.6237   11.6013 C.3     1  UNL1        0.1226
      9 N          61.1089   86.9486   10.2268 N.am    1  UNL1       -0.2623
     10 C          61.5913   85.8801    9.2910 C.2     1  UNL1        0.2671
     11 O          61.3183   85.8093    7.8178 O.2     1  UNL1       -0.2682
     12 C          63.1572   85.0171   13.9800 C.ar    1  UNL1        0.0102
     13 C          64.0086   86.1840   14.3839 C.ar    1  UNL1        0.0017
     14 C          64.0228   86.6436   15.8117 C.ar    1  UNL1        0.0114
     15 C          63.1855   85.9361   16.8355 C.ar    1  UNL1        0.0585
     16 CL         63.1997   86.3957   18.2633 Cl      1  UNL1       -0.0822
     17 C          62.3340   84.7692   16.4316 C.ar    1  UNL1        0.0228
     18 C          62.3198   84.3096   15.0038 C.ar    1  UNL1        0.0585
     19 CL         61.4683   83.1426   14.6000 Cl      1  UNL1       -0.0822
     20 C          64.5980   82.5043   13.1986 C.3     1  UNL1        0.0934
     21 N          64.0036   81.2327   13.7273 N.3     1  UNL1       -0.3174
     22 H          63.1522   81.4457   14.2470 H       1  UNL1        0.1192
     23 H          64.6738   80.7753   14.3454 H       1  UNL1        0.1192
     24 C          60.2689   88.1340    9.8535 C.3     1  UNL1        0.1798
     25 C          60.9230   89.3946    9.3708 C.2     1  UNL1        0.2460
     26 O          60.5199   89.9925    8.0555 O.2     1  UNL1       -0.2730
     27 N          61.9803   90.0573   10.2033 N.am    1  UNL1       -0.2752
     28 C          62.3834   89.4594   11.5186 C.3     1  UNL1        0.1126
     29 C          63.4406   90.1221   12.3512 C.3     1  UNL1        0.1169
     30 N          64.0946   91.3826   11.8684 N.3     1  UNL1       -0.1559
     31 C          63.6915   91.9806   10.5531 C.3     1  UNL1        0.1169
     32 C          62.6343   91.3179    9.7205 C.3     1  UNL1        0.1126
     33 S          65.1519   92.0453   12.7010 S.O2    1  UNL1        0.0458
     34 C          66.2090   92.7080   13.5337 C.3     1  UNL1        0.1960
     35 O          64.3936   91.6911   13.9458 O.2     1  UNL1       -0.1572
     36 O          65.9101   92.3995   11.4563 O.2     1  UNL1       -0.1572
@<TRIPOS>BOND
     1     1     2    1
     2     2     3   ar
     3     3     4   ar
     4     4     5   ar
     5     5     6   ar
     6     6    12    1
     7    12    13   ar
     8    13    14   ar
     9    14    15   ar
    10    15    16    1
    11    15    17   ar
    12    17    18   ar
    13    18    19    1
    14     6     7   ar
    15     7    20    1
    16    20    21    1
    17     5     8    1
    18     8     9    1
    19     9    24    1
    20    24    25    1
    21    25    26    2
    22    25    27   am
    23    27    28    1
    24    28    29    1
    25    29    30    1
    26    30    33    1
    27    33    34    1
    28    33    35    2
    29    33    36    2
    30    30    31    1
    31    31    32    1
    32     9    10   am
    33    10    11    2
    34     7     2   ar
    35    32    27    1
    36    10     4    1
    37    18    12   ar
    38    21    22    1
    39    21    23    1
@<TRIPOS>MOLECULE
*****
 36 39 0 0 0
SMALL
GASTEIGER

@<TRIPOS>ATOM
      1 C          63.6688   82.9824   15.0584 C.3     1  UNL1        0.0518
      2 C          63.5031   84.2474   14.2694 C.ar    1  UNL1        0.0568
      3 N          63.7780   85.5741   14.9130 N.ar    1  UNL1       -0.2456
      4 C          63.6123   86.8391   14.1241 C.ar    1  UNL1        0.1319
      5 C          63.1716   86.7773   12.6916 C.ar    1  UNL1        0.0196
      6 C          62.8966   85.4506   12.0480 C.ar    1  UNL1       -0.0015
      7 C          63.0624   84.1856   12.8370 C.ar    1  UNL1        0.0068
      8 C          63.0953   88.1813   12.1691 C.3     1  UNL1        0.1226
      9 N          63.4889   89.1108   13.2787 N.am    1  UNL1       -0.2623
     10 C          63.8084   88.2812   14.4869 C.2     1  UNL1        0.2671
     11 O          64.2471   88.8024   15.8233 O.2     1  UNL1       -0.2682
     12 C          62.4559   85.3888   10.6155 C.ar    1  UNL1        0.0102
     13 C          61.1800   86.0556   10.1940 C.ar    1  UNL1        0.0017
     14 C          60.7392   85.9938    8.7616 C.ar    1  UNL1        0.0114
     15 C          61.5743   85.2652    7.7507 C.ar    1  UNL1        0.0585
     16 CL         61.1335   85.2034    6.3183 Cl      1  UNL1       -0.0822
     17 C          62.8501   84.5984    8.1723 C.ar    1  UNL1        0.0228
     18 C          63.2909   84.6602    9.6047 C.ar    1  UNL1        0.0585
     19 CL         64.5667   83.9934   10.0263 Cl      1  UNL1       -0.0822
     20 C          62.7874   82.8588   12.1934 C.3     1  UNL1        0.0934
     21 N          63.8678   81.8206   12.1241 N.3     1  UNL1       -0.3174
     22 H          64.6190   82.1515   11.5187 H       1  UNL1        0.1192
     23 H          63.4833   80.9545   11.7465 H       1  UNL1        0.1192
     24 C          63.5520   90.6071   13.1948 C.3     1  UNL1        0.1798
     25 C          64.8537   91.3169   13.4226 C.2     1  UNL1        0.2460
     26 O          65.6240   91.0830   14.6882 O.2     1  UNL1       -0.2730
     27 N          65.3851   92.2605   12.3847 N.am    1  UNL1       -0.2752
     28 C          64.6148   92.4945   11.1191 C.3     1  UNL1        0.1126
     29 C          65.1461   93.4381   10.0812 C.3     1  UNL1        0.1169
     30 N          66.4477   94.1478   10.3090 N.3     1  UNL1       -0.1559
     31 C          67.2181   93.9139   11.5747 C.3     1  UNL1        0.1169
     32 C          66.6867   92.9702   12.6126 C.3     1  UNL1        0.1126
     33 S          66.9791   95.0915    9.2711 S.O2    1  UNL1        0.0458
     34 C          67.5104   96.0352    8.2333 C.3     1  UNL1        0.1960
     35 O          65.9933   96.1322    9.7127 O.2     1  UNL1       -0.1572
     36 O          67.9648   94.0508    8.8295 O.2     1  UNL1       -0.1572
@<TRIPOS>BOND
     1     1     2    1
     2     2     3   ar
     3     3     4   ar
     4     4     5   ar
     5     5     6   ar
     6     6    12    1
     7    12    13   ar
     8    13    14   ar
     9    14    15   ar
    10    15    16    1
    11    15    17   ar
    12    17    18   ar
    13    18    19    1
    14     6     7   ar
    15     7    20    1
    16    20    21    1
    17     5     8    1
    18     8     9    1
    19     9    24    1
    20    24    25    1
    21    25    26    2
    22    25    27   am
    23    27    28    1
    24    28    29    1
    25    29    30    1
    26    30    33    1
    27    33    34    1
    28    33    35    2
    29    33    36    2
    30    30    31    1
    31    31    32    1
    32     9    10   am
    33    10    11    2
    34     7     2   ar
    35    32    27    1
    36    10     4    1
    37    18    12   ar
    38    21    22    1
    39    21    23    1
@<TRIPOS>MOLECULE
*****
 36 39 0 0 0
SMALL
GASTEIGER

@<TRIPOS>ATOM
      1 C          67.6397   92.1982   16.8326 C.3     1  UNL1        0.0518
      2 C          66.6941   91.9667   15.6915 C.ar    1  UNL1        0.0568
      3 N          65.4544   91.1480   15.8990 N.ar    1  UNL1       -0.2456
      4 C          64.5088   90.9165   14.7579 C.ar    1  UNL1        0.1319
      5 C          64.8028   91.5036   13.4093 C.ar    1  UNL1        0.0196
      6 C          66.0424   92.3223   13.2017 C.ar    1  UNL1       -0.0015
      7 C          66.9881   92.5538   14.3429 C.ar    1  UNL1        0.0068
      8 C          63.6937   91.1084   12.4799 C.3     1  UNL1        0.1226
      9 N          62.7143   90.2771   13.2541 N.am    1  UNL1       -0.2623
     10 C          63.2180   90.1584   14.6620 C.2     1  UNL1        0.2671
     11 O          62.5485   89.4127   15.7781 O.2     1  UNL1       -0.2682
     12 C          66.3365   92.9095   11.8530 C.ar    1  UNL1        0.0102
     13 C          65.5087   94.0477   11.3340 C.ar    1  UNL1        0.0017
     14 C          65.8027   94.6349    9.9854 C.ar    1  UNL1        0.0114
     15 C          66.9244   94.0838    9.1559 C.ar    1  UNL1        0.0585
     16 CL         67.2184   94.6711    7.8073 Cl      1  UNL1       -0.0822
     17 C          67.7521   92.9457    9.6749 C.ar    1  UNL1        0.0228
     18 C          67.4581   92.3584   11.0235 C.ar    1  UNL1        0.0585
     19 CL         68.2858   91.2202   11.5426 Cl      1  UNL1       -0.0822
     20 C          68.2278   93.3725   14.1353 C.3     1  UNL1        0.0934
     21 N          69.5789   92.7373   14.2798 N.3     1  UNL1       -0.3174
     22 H          69.7205   92.4562   15.2500 H       1  UNL1        0.1192
     23 H          70.2999   93.4070   14.0112 H       1  UNL1        0.1192
     24 C          61.4526   89.6707   12.7152 C.3     1  UNL1        0.1798
     25 C          61.0576   89.9063   11.2874 C.2     1  UNL1        0.2460
     26 O          60.6369   91.2754   10.8418 O.2     1  UNL1       -0.2730
     27 N          61.0834   88.7728   10.3052 N.am    1  UNL1       -0.2752
     28 C          61.5041   87.4038   10.7508 C.3     1  UNL1        0.1126
     29 C          61.5299   86.2703    9.7687 C.3     1  UNL1        0.1169
     30 N          61.1350   86.5060    8.3410 N.3     1  UNL1       -0.1559
     31 C          60.7142   87.8750    7.8954 C.3     1  UNL1        0.1169
     32 C          60.6884   89.0085    8.8775 C.3     1  UNL1        0.1126
     33 S          61.1608   85.3725    7.3589 S.O2    1  UNL1        0.0458
     34 C          61.1865   84.2390    6.3767 C.3     1  UNL1        0.1960
     35 O          59.7000   85.5761    7.0855 O.2     1  UNL1       -0.1572
     36 O          62.6214   85.1688    7.6322 O.2     1  UNL1       -0.1572
@<TRIPOS>BOND
     1     1     2    1
     2     2     3   ar
     3     3     4   ar
     4     4     5   ar
     5     5     6   ar
     6     6    12    1
     7    12    13   ar
     8    13    14   ar
     9    14    15   ar
    10    15    16    1
    11    15    17   ar
    12    17    18   ar
    13    18    19    1
    14     6     7   ar
    15     7    20    1
    16    20    21    1
    17     5     8    1
    18     8     9    1
    19     9    24    1
    20    24    25    1
    21    25    26    2
    22    25    27   am
    23    27    28    1
    24    28    29    1
    25    29    30    1
    26    30    33    1
    27    33    34    1
    28    33    35    2
    29    33    36    2
    30    30    31    1
    31    31    32    1
    32     9    10   am
    33    10    11    2
    34     7     2   ar
    35    32    27    1
    36    10     4    1
    37    18    12   ar
    38    21    22    1
    39    21    23    1
