@<TRIPOS>MOLECULE
*****
 25 28 0 0 0
SMALL
GASTEIGER

@<TRIPOS>ATOM
      1 C          65.4203   92.8858   11.8396 C.3     1  UNL1        0.0471
      2 C          65.9268   92.3743   13.1555 C.3     1  UNL1        0.0276
      3 C          65.4290   91.0655   13.6933 C.3     1  UNL1        0.0953
      4 N          64.4246   90.2683   12.9151 N.am    1  UNL1       -0.2642
      5 C          63.9267   88.9594   13.4529 C.2     1  UNL1        0.3039
      6 O          62.9223   88.1622   12.6747 O.2     1  UNL1       -0.2526
      7 N          64.4332   88.4479   14.7688 N.am    1  UNL1       -0.2901
      8 C          63.9180   90.7798   11.5992 C.3     1  UNL1        0.0953
      9 C          64.4159   92.0885   11.0614 C.3     1  UNL1        0.0276
     10 H          65.0924   88.9712   15.2796 H       1  UNL1        0.1509
     11 C          67.3508   96.5705    8.5874 C.3     1  UNL1        0.1555
     12 N          66.8056   95.8883    9.8069 N.ar    1  UNL1       -0.2285
     13 C          66.4070   94.4456    9.9060 C.ar    1  UNL1        0.1132
     14 C          65.9182   94.1946   11.3018 C.ar    1  UNL1        0.1006
     15 N          66.0147   95.4821   12.0653 N.ar    1  UNL1       -0.1332
     16 N          66.5631   96.5289   11.1414 N.ar    1  UNL1       -0.0641
     17 C          63.9353   87.1391   15.3067 C.3     1  UNL1        0.0774
     18 C          63.5317   86.2816   16.4693 C.3     1  UNL1        0.0259
     19 C          63.4767   85.7298   15.0756 C.3     1  UNL1        0.0420
     20 C          63.1801   84.5975   14.1375 C.ar    1  UNL1       -0.0208
     21 C          62.6888   83.2865   14.6759 C.ar    1  UNL1       -0.0042
     22 C          62.3923   82.1543   13.7378 C.ar    1  UNL1       -0.0003
     23 C          62.5870   82.3330   12.2612 C.ar    1  UNL1       -0.0000
     24 C          63.0784   83.6440   11.7228 C.ar    1  UNL1       -0.0003
     25 C          63.3749   84.7763   12.6610 C.ar    1  UNL1       -0.0042
@<TRIPOS>BOND
     1    11    12    1
     2    12    13   ar
     3    13    14   ar
     4    14     1    1
     5     1     2    1
     6     2     3    1
     7     3     4    1
     8     4     5   am
     9     5     6    2
    10     5     7   am
    11     7    17    1
    12    17    18    1
    13    18    19    1
    14    19    20    1
    15    20    21   ar
    16    21    22   ar
    17    22    23   ar
    18    23    24   ar
    19    24    25   ar
    20     4     8    1
    21     8     9    1
    22    14    15   ar
    23    15    16   ar
    24    16    12   ar
    25     9     1    1
    26    19    17    1
    27    25    20   ar
    28     7    10    1
@<TRIPOS>MOLECULE
*****
 25 28 0 0 0
SMALL
GASTEIGER

@<TRIPOS>ATOM
      1 C          63.0434   83.3542   12.6341 C.3     1  UNL1        0.0471
      2 C          63.7304   83.8711   13.8633 C.3     1  UNL1        0.0276
      3 C          63.8971   85.3481   14.0642 C.3     1  UNL1        0.0953
      4 N          63.3768   86.3084   13.0360 N.am    1  UNL1       -0.2642
      5 C          63.5435   87.7855   13.2370 C.2     1  UNL1        0.3039
      6 O          63.0232   88.7458   12.2088 O.2     1  UNL1       -0.2526
      7 N          64.2306   88.3023   14.4662 N.am    1  UNL1       -0.2901
      8 C          62.6898   85.7916   11.8069 C.3     1  UNL1        0.0953
      9 C          62.5231   84.3145   11.6059 C.3     1  UNL1        0.0276
     10 H          64.5721   87.6721   15.1410 H       1  UNL1        0.1509
     11 C          62.8344   78.5853   10.3770 C.3     1  UNL1        0.1555
     12 N          62.7806   79.6851   11.3956 N.ar    1  UNL1       -0.2285
     13 C          63.0384   81.1399   11.1368 C.ar    1  UNL1        0.1132
     14 C          62.8766   81.8771   12.4331 C.ar    1  UNL1        0.1006
     15 N          62.5189   80.8779   13.4931 N.ar    1  UNL1       -0.1332
     16 N          62.4595   79.5231   12.8519 N.ar    1  UNL1       -0.0641
     17 C          64.3973   89.7795   14.6672 C.3     1  UNL1        0.0774
     18 C          64.3641   90.9801   15.5657 C.3     1  UNL1        0.0259
     19 C          64.7193   91.1372   14.1169 C.3     1  UNL1        0.0420
     20 C          65.1102   92.0118   12.9626 C.ar    1  UNL1       -0.0208
     21 C          64.5395   91.7543   11.5996 C.ar    1  UNL1       -0.0042
     22 C          64.9304   92.6289   10.4453 C.ar    1  UNL1       -0.0003
     23 C          65.8922   93.7610   10.6542 C.ar    1  UNL1       -0.0000
     24 C          66.4629   94.0184   12.0172 C.ar    1  UNL1       -0.0003
     25 C          66.0719   93.1438   13.1715 C.ar    1  UNL1       -0.0042
@<TRIPOS>BOND
     1    11    12    1
     2    12    13   ar
     3    13    14   ar
     4    14     1    1
     5     1     2    1
     6     2     3    1
     7     3     4    1
     8     4     5   am
     9     5     6    2
    10     5     7   am
    11     7    17    1
    12    17    18    1
    13    18    19    1
    14    19    20    1
    15    20    21   ar
    16    21    22   ar
    17    22    23   ar
    18    23    24   ar
    19    24    25   ar
    20     4     8    1
    21     8     9    1
    22    14    15   ar
    23    15    16   ar
    24    16    12   ar
    25     9     1    1
    26    19    17    1
    27    25    20   ar
    28     7    10    1
@<TRIPOS>MOLECULE
*****
 25 28 0 0 0
SMALL
GASTEIGER

@<TRIPOS>ATOM
      1 C          63.2890   84.9465   13.6584 C.3     1  UNL1        0.0471
      2 C          64.1705   85.5682   14.7006 C.3     1  UNL1        0.0276
      3 C          64.5082   87.0276   14.6238 C.3     1  UNL1        0.0953
      4 N          63.9644   87.8654   13.5047 N.am    1  UNL1       -0.2642
      5 C          64.3021   89.3249   13.4279 C.2     1  UNL1        0.3039
      6 O          63.7582   90.1626   12.3088 O.2     1  UNL1       -0.2526
      7 N          65.1836   89.9466   14.4702 N.am    1  UNL1       -0.2901
      8 C          63.0828   87.2437   12.4624 C.3     1  UNL1        0.0953
      9 C          62.7452   85.7842   12.5393 C.3     1  UNL1        0.0276
     10 H          65.5405   89.3967   15.2047 H       1  UNL1        0.1509
     11 C          62.5830   79.8798   12.3503 C.3     1  UNL1        0.1555
     12 N          62.6268   81.1580   13.1338 N.ar    1  UNL1       -0.2285
     13 C          63.0685   82.4948   12.6163 C.ar    1  UNL1        0.1132
     14 C          62.9513   83.4870   13.7352 C.ar    1  UNL1        0.1006
     15 N          62.4370   82.7634   14.9443 N.ar    1  UNL1       -0.1332
     16 N          62.2365   81.3241   14.5727 N.ar    1  UNL1       -0.0641
     17 C          65.5213   91.4061   14.3934 C.3     1  UNL1        0.0774
     18 C          65.6714   92.7415   15.0597 C.3     1  UNL1        0.0259
     19 C          65.9562   92.5985   13.5940 C.3     1  UNL1        0.0420
     20 C          66.3717   93.2044   12.2863 C.ar    1  UNL1       -0.0208
     21 C          66.9844   92.3433   11.2218 C.ar    1  UNL1       -0.0042
     22 C          67.4000   92.9492    9.9140 C.ar    1  UNL1       -0.0003
     23 C          67.2027   94.4162    9.6707 C.ar    1  UNL1       -0.0000
     24 C          66.5900   95.2773   10.7352 C.ar    1  UNL1       -0.0003
     25 C          66.1745   94.6713   12.0430 C.ar    1  UNL1       -0.0042
@<TRIPOS>BOND
     1    11    12    1
     2    12    13   ar
     3    13    14   ar
     4    14     1    1
     5     1     2    1
     6     2     3    1
     7     3     4    1
     8     4     5   am
     9     5     6    2
    10     5     7   am
    11     7    17    1
    12    17    18    1
    13    18    19    1
    14    19    20    1
    15    20    21   ar
    16    21    22   ar
    17    22    23   ar
    18    23    24   ar
    19    24    25   ar
    20     4     8    1
    21     8     9    1
    22    14    15   ar
    23    15    16   ar
    24    16    12   ar
    25     9     1    1
    26    19    17    1
    27    25    20   ar
    28     7    10    1
@<TRIPOS>MOLECULE
*****
 25 28 0 0 0
SMALL
GASTEIGER

@<TRIPOS>ATOM
      1 C          59.8197   88.9744    7.4843 C.3     1  UNL1        0.0471
      2 C          60.5217   89.5390    8.6837 C.3     1  UNL1        0.0276
      3 C          61.1403   88.6180    9.6931 C.3     1  UNL1        0.0953
      4 N          61.0571   87.1324    9.5032 N.am    1  UNL1       -0.2642
      5 C          61.6758   86.2114   10.5127 C.2     1  UNL1        0.3039
      6 O          61.5925   84.7258   10.3228 O.2     1  UNL1       -0.2526
      7 N          62.3777   86.7760   11.7120 N.am    1  UNL1       -0.2901
      8 C          60.3551   86.5678    8.3038 C.3     1  UNL1        0.0953
      9 C          59.7364   87.4888    7.2944 C.3     1  UNL1        0.0276
     10 H          62.4324   87.7511   11.8366 H       1  UNL1        0.1509
     11 C          59.2349   92.5029    3.5998 C.3     1  UNL1        0.1555
     12 N          58.9323   91.5173    4.6893 N.ar    1  UNL1       -0.2285
     13 C          59.9429   90.7678    5.5060 C.ar    1  UNL1        0.1132
     14 C          59.2010   89.8954    6.4748 C.ar    1  UNL1        0.1006
     15 N          57.7319   90.1058    6.2570 N.ar    1  UNL1       -0.1332
     16 N          57.5658   91.1081    5.1535 N.ar    1  UNL1       -0.0641
     17 C          62.9964   85.8550   12.7215 C.3     1  UNL1        0.0774
     18 C          63.9009   85.6364   13.8979 C.3     1  UNL1        0.0259
     19 C          63.1635   84.4785   13.2935 C.3     1  UNL1        0.0420
     20 C          62.8343   83.0152   13.2748 C.ar    1  UNL1       -0.0208
     21 C          61.9977   82.4206   14.3686 C.ar    1  UNL1       -0.0042
     22 C          61.6684   80.9574   14.3499 C.ar    1  UNL1       -0.0003
     23 C          62.1758   80.0886   13.2372 C.ar    1  UNL1       -0.0000
     24 C          63.0124   80.6832   12.1434 C.ar    1  UNL1       -0.0003
     25 C          63.3416   82.1465   12.1621 C.ar    1  UNL1       -0.0042
@<TRIPOS>BOND
     1    11    12    1
     2    12    13   ar
     3    13    14   ar
     4    14     1    1
     5     1     2    1
     6     2     3    1
     7     3     4    1
     8     4     5   am
     9     5     6    2
    10     5     7   am
    11     7    17    1
    12    17    18    1
    13    18    19    1
    14    19    20    1
    15    20    21   ar
    16    21    22   ar
    17    22    23   ar
    18    23    24   ar
    19    24    25   ar
    20     4     8    1
    21     8     9    1
    22    14    15   ar
    23    15    16   ar
    24    16    12   ar
    25     9     1    1
    26    19    17    1
    27    25    20   ar
    28     7    10    1
@<TRIPOS>MOLECULE
*****
 25 28 0 0 0
SMALL
GASTEIGER

@<TRIPOS>ATOM
      1 C          63.1171   83.3009   12.9147 C.3     1  UNL1        0.0471
      2 C          62.7385   84.2907   11.8532 C.3     1  UNL1        0.0276
      3 C          62.9845   85.7543   12.0706 C.3     1  UNL1        0.0953
      4 N          63.6092   86.2281   13.3494 N.am    1  UNL1       -0.2642
      5 C          63.8552   87.6918   13.5667 C.2     1  UNL1        0.3039
      6 O          64.4798   88.1656   14.8455 O.2     1  UNL1       -0.2526
      7 N          63.4765   88.6817   12.5052 N.am    1  UNL1       -0.2901
      8 C          63.9878   85.2383   14.4109 C.3     1  UNL1        0.0953
      9 C          63.7418   83.7747   14.1935 C.3     1  UNL1        0.0276
     10 H          63.0665   88.3707   11.6659 H       1  UNL1        0.1509
     11 C          62.6975   78.5663   10.6149 C.3     1  UNL1        0.1555
     12 N          62.6783   79.6610   11.6403 N.ar    1  UNL1       -0.2285
     13 C          63.0269   81.1000   11.4004 C.ar    1  UNL1        0.1132
     14 C          62.8711   81.8372   12.6974 C.ar    1  UNL1        0.1006
     15 N          62.4261   80.8538   13.7390 N.ar    1  UNL1       -0.1332
     16 N          62.3069   79.5088   13.0857 N.ar    1  UNL1       -0.0641
     17 C          63.7225   90.1454   12.7225 C.3     1  UNL1        0.0774
     18 C          63.3326   91.5759   12.4955 C.3     1  UNL1        0.0259
     19 C          64.5385   91.2500   13.3259 C.3     1  UNL1        0.0420
     20 C          65.7058   91.6995   14.1537 C.ar    1  UNL1       -0.0208
     21 C          65.4942   92.1401   15.5718 C.ar    1  UNL1       -0.0042
     22 C          66.6615   92.5896   16.3996 C.ar    1  UNL1       -0.0003
     23 C          68.0405   92.5986   15.8093 C.ar    1  UNL1       -0.0000
     24 C          68.2521   92.1580   14.3911 C.ar    1  UNL1       -0.0003
     25 C          67.0847   91.7084   13.5633 C.ar    1  UNL1       -0.0042
@<TRIPOS>BOND
     1    11    12    1
     2    12    13   ar
     3    13    14   ar
     4    14     1    1
     5     1     2    1
     6     2     3    1
     7     3     4    1
     8     4     5   am
     9     5     6    2
    10     5     7   am
    11     7    17    1
    12    17    18    1
    13    18    19    1
    14    19    20    1
    15    20    21   ar
    16    21    22   ar
    17    22    23   ar
    18    23    24   ar
    19    24    25   ar
    20     4     8    1
    21     8     9    1
    22    14    15   ar
    23    15    16   ar
    24    16    12   ar
    25     9     1    1
    26    19    17    1
    27    25    20   ar
    28     7    10    1
@<TRIPOS>MOLECULE
*****
 25 28 0 0 0
SMALL
GASTEIGER

@<TRIPOS>ATOM
      1 C          62.8439   93.9802    1.0895 C.3     1  UNL1        0.0471
      2 C          63.3397   92.8510    1.9432 C.3     1  UNL1        0.0276
      3 C          62.4158   92.1893    2.9222 C.3     1  UNL1        0.0953
      4 N          60.9961   92.6568    3.0475 N.am    1  UNL1       -0.2642
      5 C          60.0721   91.9951    4.0266 C.2     1  UNL1        0.3039
      6 O          58.6524   92.4626    4.1519 O.2     1  UNL1       -0.2526
      7 N          60.5680   90.8658    4.8803 N.am    1  UNL1       -0.2901
      8 C          60.5002   93.7860    2.1937 C.3     1  UNL1        0.0953
      9 C          61.4241   94.4477    1.2147 C.3     1  UNL1        0.0276
     10 H          61.4998   90.5590    4.7981 H       1  UNL1        0.1509
     11 C          64.9419   95.7752   -3.4114 C.3     1  UNL1        0.1555
     12 N          64.7321   95.4670   -1.9585 N.ar    1  UNL1       -0.2285
     13 C          63.5709   94.7182   -1.3747 C.ar    1  UNL1        0.1132
     14 C          63.7678   94.6419    0.1104 C.ar    1  UNL1        0.1006
     15 N          65.0508   95.3435    0.4445 N.ar    1  UNL1       -0.1332
     16 N          65.6468   95.8534   -0.8341 N.ar    1  UNL1       -0.0641
     17 C          59.6441   90.2041    5.8594 C.3     1  UNL1        0.0774
     18 C          58.2535   89.9100    6.3386 C.3     1  UNL1        0.0259
     19 C          59.4345   89.3521    7.0760 C.3     1  UNL1        0.0420
     20 C          59.9953   88.5381    8.2042 C.ar    1  UNL1       -0.0208
     21 C          60.4706   89.2166    9.4547 C.ar    1  UNL1       -0.0042
     22 C          61.0314   88.4027   10.5829 C.ar    1  UNL1       -0.0003
     23 C          61.1171   86.9100   10.4606 C.ar    1  UNL1       -0.0000
     24 C          60.6419   86.2315    9.2101 C.ar    1  UNL1       -0.0003
     25 C          60.0810   87.0456    8.0819 C.ar    1  UNL1       -0.0042
@<TRIPOS>BOND
     1    11    12    1
     2    12    13   ar
     3    13    14   ar
     4    14     1    1
     5     1     2    1
     6     2     3    1
     7     3     4    1
     8     4     5   am
     9     5     6    2
    10     5     7   am
    11     7    17    1
    12    17    18    1
    13    18    19    1
    14    19    20    1
    15    20    21   ar
    16    21    22   ar
    17    22    23   ar
    18    23    24   ar
    19    24    25   ar
    20     4     8    1
    21     8     9    1
    22    14    15   ar
    23    15    16   ar
    24    16    12   ar
    25     9     1    1
    26    19    17    1
    27    25    20   ar
    28     7    10    1
@<TRIPOS>MOLECULE
*****
 25 28 0 0 0
SMALL
GASTEIGER

@<TRIPOS>ATOM
      1 C          62.2641   86.5842   11.5209 C.3     1  UNL1        0.0471
      2 C          62.3272   88.0523   11.2197 C.3     1  UNL1        0.0276
      3 C          61.6003   88.6057   10.0301 C.3     1  UNL1        0.0953
      4 N          60.8103   87.6910    9.1416 N.am    1  UNL1       -0.2642
      5 C          60.0833   88.2445    7.9520 C.2     1  UNL1        0.3039
      6 O          59.2933   87.3299    7.0635 O.2     1  UNL1       -0.2526
      7 N          60.1464   89.7126    7.6508 N.am    1  UNL1       -0.2901
      8 C          60.7472   86.2230    9.4428 C.3     1  UNL1        0.0953
      9 C          61.4741   85.6695   10.6324 C.3     1  UNL1        0.0276
     10 H          60.6649   90.3129    8.2339 H       1  UNL1        0.1509
     11 C          64.1443   83.2382   15.1472 C.3     1  UNL1        0.1555
     12 N          63.8553   84.4927   14.3774 N.ar    1  UNL1       -0.2285
     13 C          63.0067   84.5950   13.1448 C.ar    1  UNL1        0.1132
     14 C          62.9911   86.0307   12.7106 C.ar    1  UNL1        0.1006
     15 N          63.8300   86.8157   13.6749 N.ar    1  UNL1       -0.1332
     16 N          64.3641   85.8652   14.7050 N.ar    1  UNL1       -0.0641
     17 C          59.4194   90.2661    6.4611 C.3     1  UNL1        0.0774
     18 C          58.1426   90.4836    5.7046 C.3     1  UNL1        0.0259
     19 C          59.4372   91.0072    5.1571 C.3     1  UNL1        0.0420
     20 C          60.1949   91.7373    4.0881 C.ar    1  UNL1       -0.0208
     21 C          59.4948   92.7501    3.2312 C.ar    1  UNL1       -0.0042
     22 C          60.2525   93.4802    2.1623 C.ar    1  UNL1       -0.0003
     23 C          61.7104   93.1976    1.9501 C.ar    1  UNL1       -0.0000
     24 C          62.4104   92.1848    2.8070 C.ar    1  UNL1       -0.0003
     25 C          61.6526   91.4547    3.8760 C.ar    1  UNL1       -0.0042
@<TRIPOS>BOND
     1    11    12    1
     2    12    13   ar
     3    13    14   ar
     4    14     1    1
     5     1     2    1
     6     2     3    1
     7     3     4    1
     8     4     5   am
     9     5     6    2
    10     5     7   am
    11     7    17    1
    12    17    18    1
    13    18    19    1
    14    19    20    1
    15    20    21   ar
    16    21    22   ar
    17    22    23   ar
    18    23    24   ar
    19    24    25   ar
    20     4     8    1
    21     8     9    1
    22    14    15   ar
    23    15    16   ar
    24    16    12   ar
    25     9     1    1
    26    19    17    1
    27    25    20   ar
    28     7    10    1
@<TRIPOS>MOLECULE
*****
 25 28 0 0 0
SMALL
GASTEIGER

@<TRIPOS>ATOM
      1 C          64.7566   90.9259   13.7108 C.3     1  UNL1        0.0471
      2 C          64.2928   91.7186   12.5249 C.3     1  UNL1        0.0276
      3 C          63.3520   91.1024   11.5323 C.3     1  UNL1        0.0953
      4 N          62.8750   89.6935   11.7258 N.am    1  UNL1       -0.2642
      5 C          61.9342   89.0773   10.7332 C.2     1  UNL1        0.3039
      6 O          61.4572   87.6684   10.9266 O.2     1  UNL1       -0.2526
      7 N          61.4704   89.8700    9.5472 N.am    1  UNL1       -0.2901
      8 C          63.3388   88.9008   12.9117 C.3     1  UNL1        0.0953
      9 C          64.2796   89.5170   13.9042 C.3     1  UNL1        0.0276
     10 H          61.7835   90.7947    9.4203 H       1  UNL1        0.1509
     11 C          69.1758   92.5169   16.1235 C.3     1  UNL1        0.1555
     12 N          67.7288   92.2734   15.8124 N.ar    1  UNL1       -0.2285
     13 C          67.1945   91.5533   14.6098 C.ar    1  UNL1        0.1132
     14 C          65.6975   91.5421   14.7034 C.ar    1  UNL1        0.1006
     15 N          65.3064   92.2553   15.9637 N.ar    1  UNL1       -0.1332
     16 N          66.5618   92.7072   16.6491 N.ar    1  UNL1       -0.0641
     17 C          60.5295   89.2538    8.5546 C.3     1  UNL1        0.0774
     18 C          59.7765   88.0603    8.0462 C.3     1  UNL1        0.0259
     19 C          59.6531   89.3800    7.3439 C.3     1  UNL1        0.0420
     20 C          59.0758   90.2147    6.2395 C.ar    1  UNL1       -0.0208
     21 C          59.9850   90.9770    5.3218 C.ar    1  UNL1       -0.0042
     22 C          59.4077   91.8118    4.2173 C.ar    1  UNL1       -0.0003
     23 C          57.9211   91.8843    4.0305 C.ar    1  UNL1       -0.0000
     24 C          57.0119   91.1220    4.9482 C.ar    1  UNL1       -0.0003
     25 C          57.5892   90.2872    6.0527 C.ar    1  UNL1       -0.0042
@<TRIPOS>BOND
     1    11    12    1
     2    12    13   ar
     3    13    14   ar
     4    14     1    1
     5     1     2    1
     6     2     3    1
     7     3     4    1
     8     4     5   am
     9     5     6    2
    10     5     7   am
    11     7    17    1
    12    17    18    1
    13    18    19    1
    14    19    20    1
    15    20    21   ar
    16    21    22   ar
    17    22    23   ar
    18    23    24   ar
    19    24    25   ar
    20     4     8    1
    21     8     9    1
    22    14    15   ar
    23    15    16   ar
    24    16    12   ar
    25     9     1    1
    26    19    17    1
    27    25    20   ar
    28     7    10    1
@<TRIPOS>MOLECULE
*****
 25 28 0 0 0
SMALL
GASTEIGER

@<TRIPOS>ATOM
      1 C          61.9703   86.6788    9.6801 C.3     1  UNL1        0.0471
      2 C          62.0618   88.1751    9.7289 C.3     1  UNL1        0.0276
      3 C          62.6121   88.8535   10.9482 C.3     1  UNL1        0.0953
      4 N          63.0709   88.0355   12.1189 N.am    1  UNL1       -0.2642
      5 C          63.6213   88.7140   13.3383 C.2     1  UNL1        0.3039
      6 O          64.0801   87.8960   14.5089 O.2     1  UNL1       -0.2526
      7 N          63.7129   90.2104   13.3870 N.am    1  UNL1       -0.2901
      8 C          62.9794   86.5391   12.0701 C.3     1  UNL1        0.0953
      9 C          62.4290   85.8608   10.8508 C.3     1  UNL1        0.0276
     10 H          63.4117   90.7472   12.6186 H       1  UNL1        0.1509
     11 C          61.6174   83.8474    5.2371 C.3     1  UNL1        0.1555
     12 N          61.2578   84.6989    6.4185 N.ar    1  UNL1       -0.2285
     13 C          62.2042   85.1851    7.4757 C.ar    1  UNL1        0.1132
     14 C          61.4199   86.0003    8.4607 C.ar    1  UNL1        0.1006
     15 N          59.9886   86.0179    8.0123 N.ar    1  UNL1       -0.1332
     16 N          59.8884   85.2136    6.7501 N.ar    1  UNL1       -0.0641
     17 C          64.2632   90.8888   14.6064 C.3     1  UNL1        0.0774
     18 C          64.0924   91.3564   16.0213 C.3     1  UNL1        0.0259
     19 C          65.3873   91.5964   15.3034 C.3     1  UNL1        0.0420
     20 C          66.7839   92.1435   15.2913 C.ar    1  UNL1       -0.0208
     21 C          67.7496   91.7109   14.2282 C.ar    1  UNL1       -0.0042
     22 C          69.1462   92.2579   14.2161 C.ar    1  UNL1       -0.0003
     23 C          69.5771   93.2376   15.2671 C.ar    1  UNL1       -0.0000
     24 C          68.6114   93.6702   16.3302 C.ar    1  UNL1       -0.0003
     25 C          67.2147   93.1231   16.3423 C.ar    1  UNL1       -0.0042
@<TRIPOS>BOND
     1    11    12    1
     2    12    13   ar
     3    13    14   ar
     4    14     1    1
     5     1     2    1
     6     2     3    1
     7     3     4    1
     8     4     5   am
     9     5     6    2
    10     5     7   am
    11     7    17    1
    12    17    18    1
    13    18    19    1
    14    19    20    1
    15    20    21   ar
    16    21    22   ar
    17    22    23   ar
    18    23    24   ar
    19    24    25   ar
    20     4     8    1
    21     8     9    1
    22    14    15   ar
    23    15    16   ar
    24    16    12   ar
    25     9     1    1
    26    19    17    1
    27    25    20   ar
    28     7    10    1
