@<TRIPOS>MOLECULE
*****
 36 40 0 0 0
SMALL
GASTEIGER

@<TRIPOS>ATOM
      1 C          64.4205   91.4701   15.8572 C.2     1  UNL1        0.2553
      2 O          63.5613   92.2305   16.8235 O.2     1  UNL1       -0.2720
      3 N          64.1342   90.0249   15.5756 N.am    1  UNL1       -0.2773
      4 C          62.9886   89.3401   16.2601 C.3     1  UNL1        0.0949
      5 C          62.7022   87.8948   15.9785 C.3     1  UNL1        0.0375
      6 C          63.5615   87.1344   15.0123 C.3     1  UNL1        0.0612
      7 C          64.7071   87.8193   14.3277 C.3     1  UNL1        0.0375
      8 C          64.9935   89.2645   14.6094 C.3     1  UNL1        0.0949
      9 N          63.2752   85.6893   14.7306 N.3     1  UNL1       -0.2702
     10 C          62.7644   84.8886   15.8917 C.3     1  UNL1        0.0727
     11 C          62.3898   83.4368   15.9341 C.3     1  UNL1        0.0220
     12 C          62.4334   82.4270   14.8258 C.3     1  UNL1        0.0275
     13 C          62.8625   82.6195   13.4014 C.ar    1  UNL1       -0.0248
     14 C          62.7527   81.3446   12.6188 C.ar    1  UNL1       -0.0045
     15 C          63.1342   81.3196   11.1684 C.ar    1  UNL1       -0.0003
     16 C          63.6256   82.5696   10.5006 C.ar    1  UNL1       -0.0003
     17 C          63.7354   83.8446   11.2831 C.ar    1  UNL1       -0.0032
     18 C          63.3538   83.8695   12.7335 C.ar    1  UNL1       -0.0101
     19 C          63.5375   85.2357   13.3251 C.3     1  UNL1        0.0988
     20 N          66.6720   92.5846   12.4173 N.3     1  UNL1       -0.2688
     21 C          67.3683   93.1783   13.6059 C.3     1  UNL1        0.0756
     22 C          66.8153   92.9635   14.9836 C.3     1  UNL1        0.0590
     23 C          65.5662   92.1550   15.1727 C.3     1  UNL1        0.2042
     24 F          65.8645   92.5108   16.5990 F       1  UNL1       -0.2306
     25 C          64.8698   91.5613   13.9841 C.3     1  UNL1        0.0590
     26 C          65.4228   91.7762   12.6064 C.3     1  UNL1        0.0756
     27 C          67.2250   92.7995   11.0396 C.3     1  UNL1        0.0993
     28 N          64.0853   96.8535   10.1983 N.pl3   1  UNL1       -0.3426
     29 C          65.3291   96.0830    9.8674 C.ar    1  UNL1        0.1251
     30 C          65.6552   94.8265   10.6189 C.ar    1  UNL1        0.0310
     31 C          66.8989   94.0560   10.2880 C.ar    1  UNL1       -0.0018
     32 C          67.8165   94.5420    9.2055 C.ar    1  UNL1        0.0179
     33 C          67.4904   95.7985    8.4540 C.ar    1  UNL1        0.1000
     34 N          66.2467   96.5690    8.7849 N.ar    1  UNL1       -0.2296
     35 H          63.4831   96.5345   10.9088 H       1  UNL1        0.1437
     36 H          63.8713   97.6782    9.7051 H       1  UNL1        0.1437
@<TRIPOS>BOND
     1    28    29    1
     2    29    30   ar
     3    30    31   ar
     4    31    27    1
     5    27    20    1
     6    20    21    1
     7    21    22    1
     8    22    23    1
     9    23    24    1
    10    23     1    1
    11     1     2    2
    12     1     3   am
    13     3     4    1
    14     4     5    1
    15     5     6    1
    16     6     9    1
    17     9    10    1
    18    10    11    1
    19    11    12    1
    20    12    13    1
    21    13    14   ar
    22    14    15   ar
    23    15    16   ar
    24    16    17   ar
    25    17    18   ar
    26    18    19    1
    27     6     7    1
    28     7     8    1
    29    23    25    1
    30    25    26    1
    31    31    32   ar
    32    32    33   ar
    33    33    34   ar
    34    34    29   ar
    35    26    20    1
    36     8     3    1
    37    19     9    1
    38    18    13   ar
    39    28    35    1
    40    28    36    1
@<TRIPOS>MOLECULE
*****
 36 40 0 0 0
SMALL
GASTEIGER

@<TRIPOS>ATOM
      1 C          62.5455   89.4527   11.7521 C.2     1  UNL1        0.2553
      2 O          61.6398   90.0552   10.7192 O.2     1  UNL1       -0.2720
      3 N          62.5527   87.9686   11.9695 N.am    1  UNL1       -0.2773
      4 C          61.6542   87.0868   11.1540 C.3     1  UNL1        0.0949
      5 C          61.6613   85.6027   11.3713 C.3     1  UNL1        0.0375
      6 C          62.5671   85.0003   12.4042 C.3     1  UNL1        0.0612
      7 C          63.4656   85.8821   13.2197 C.3     1  UNL1        0.0375
      8 C          63.4585   87.3663   13.0024 C.3     1  UNL1        0.0949
      9 N          62.5742   83.5162   12.6216 N.3     1  UNL1       -0.2702
     10 C          62.4686   83.0669   14.0488 C.3     1  UNL1        0.0727
     11 C          62.4487   81.6680   14.5900 C.3     1  UNL1        0.0220
     12 C          62.5296   80.3730   13.8375 C.3     1  UNL1        0.0275
     13 C          62.6503   80.1568   12.3580 C.ar    1  UNL1       -0.0248
     14 C          62.7011   78.6964   12.0199 C.ar    1  UNL1       -0.0045
     15 C          62.8215   78.2615   10.5894 C.ar    1  UNL1       -0.0003
     16 C          62.8911   79.2871    9.4970 C.ar    1  UNL1       -0.0003
     17 C          62.8404   80.7476    9.8352 C.ar    1  UNL1       -0.0032
     18 C          62.7200   81.1825   11.2657 C.ar    1  UNL1       -0.0101
     19 C          62.6861   82.6775   11.3830 C.3     1  UNL1        0.0988
     20 N          65.3642   92.6125   12.2158 N.3     1  UNL1       -0.2688
     21 C          65.1039   92.0555   13.5841 C.3     1  UNL1        0.0756
     22 C          64.1438   90.9165   13.7599 C.3     1  UNL1        0.0590
     23 C          63.4441   90.3346   12.5676 C.3     1  UNL1        0.2042
     24 F          62.8717   89.4713   13.6526 F       1  UNL1       -0.2306
     25 C          63.7045   90.8916   11.1994 C.3     1  UNL1        0.0590
     26 C          64.6646   92.0305   11.0235 C.3     1  UNL1        0.0756
     27 C          66.3243   93.7515   12.0400 C.3     1  UNL1        0.0993
     28 N          66.8402   96.8553    7.9047 N.pl3   1  UNL1       -0.3426
     29 C          67.1762   95.5823    8.6234 C.ar    1  UNL1        0.1251
     30 C          66.5823   95.3034    9.9723 C.ar    1  UNL1        0.0310
     31 C          66.9183   94.0304   10.6911 C.ar    1  UNL1       -0.0018
     32 C          67.8482   93.0363   10.0610 C.ar    1  UNL1        0.0179
     33 C          68.4422   93.3152    8.7121 C.ar    1  UNL1        0.1000
     34 N          68.1061   94.5883    7.9934 N.ar    1  UNL1       -0.2296
     35 H          66.2298   97.5077    8.3183 H       1  UNL1        0.1437
     36 H          67.2300   97.0384    7.0194 H       1  UNL1        0.1437
@<TRIPOS>BOND
     1    28    29    1
     2    29    30   ar
     3    30    31   ar
     4    31    27    1
     5    27    20    1
     6    20    21    1
     7    21    22    1
     8    22    23    1
     9    23    24    1
    10    23     1    1
    11     1     2    2
    12     1     3   am
    13     3     4    1
    14     4     5    1
    15     5     6    1
    16     6     9    1
    17     9    10    1
    18    10    11    1
    19    11    12    1
    20    12    13    1
    21    13    14   ar
    22    14    15   ar
    23    15    16   ar
    24    16    17   ar
    25    17    18   ar
    26    18    19    1
    27     6     7    1
    28     7     8    1
    29    23    25    1
    30    25    26    1
    31    31    32   ar
    32    32    33   ar
    33    33    34   ar
    34    34    29   ar
    35    26    20    1
    36     8     3    1
    37    19     9    1
    38    18    13   ar
    39    28    35    1
    40    28    36    1
@<TRIPOS>MOLECULE
*****
 36 40 0 0 0
SMALL
GASTEIGER

@<TRIPOS>ATOM
      1 C          59.5656   88.2347    7.3450 C.2     1  UNL1        0.2553
      2 O          59.4504   86.7998    6.9232 O.2     1  UNL1       -0.2720
      3 N          60.4759   88.6134    8.4754 N.am    1  UNL1       -0.2773
      4 C          61.2710   87.5572    9.1841 C.3     1  UNL1        0.0949
      5 C          62.1813   87.9359   10.3146 C.3     1  UNL1        0.0375
      6 C          62.2965   89.3708   10.7364 C.3     1  UNL1        0.0612
      7 C          61.5013   90.4269   10.0277 C.3     1  UNL1        0.0375
      8 C          60.5910   90.0483    8.8972 C.3     1  UNL1        0.0949
      9 N          63.2068   89.7495   11.8668 N.3     1  UNL1       -0.2702
     10 C          63.2781   88.7704   13.0010 C.3     1  UNL1        0.0727
     11 C          64.0856   88.8572   14.2621 C.3     1  UNL1        0.0220
     12 C          65.0213   89.9446   14.7004 C.3     1  UNL1        0.0275
     13 C          65.3806   91.2137   13.9860 C.ar    1  UNL1       -0.0248
     14 C          66.3592   92.0298   14.7773 C.ar    1  UNL1       -0.0045
     15 C          66.8500   93.3411   14.2394 C.ar    1  UNL1       -0.0003
     16 C          66.3623   93.8363   12.9101 C.ar    1  UNL1       -0.0003
     17 C          65.3837   93.0202   12.1188 C.ar    1  UNL1       -0.0032
     18 C          64.8928   91.7088   12.6568 C.ar    1  UNL1       -0.0101
     19 C          63.9254   91.0572   11.7137 C.3     1  UNL1        0.0988
     20 N          59.1782   91.6403    4.8159 N.3     1  UNL1       -0.2688
     21 C          57.7944   91.2634    5.2556 C.3     1  UNL1        0.0756
     22 C          57.5906   90.0886    6.1658 C.3     1  UNL1        0.0590
     23 C          58.7704   89.2908    6.6363 C.3     1  UNL1        0.2042
     24 F          57.6629   88.5471    7.3221 F       1  UNL1       -0.2306
     25 C          60.1541   89.6677    6.1966 C.3     1  UNL1        0.0590
     26 C          60.3580   90.8425    5.2864 C.3     1  UNL1        0.0756
     27 C          59.3820   92.8150    3.9058 C.3     1  UNL1        0.0993
     28 N          64.2275   92.2103    2.1294 N.pl3   1  UNL1       -0.3426
     29 C          62.7644   92.4139    1.8689 C.ar    1  UNL1        0.1251
     30 C          61.8048   92.5126    3.0175 C.ar    1  UNL1        0.0310
     31 C          60.3416   92.7163    2.7571 C.ar    1  UNL1       -0.0018
     32 C          59.8381   92.8211    1.3480 C.ar    1  UNL1        0.0179
     33 C          60.7977   92.7224    0.1994 C.ar    1  UNL1        0.1000
     34 N          62.2609   92.5188    0.4599 N.ar    1  UNL1       -0.2296
     35 H          64.5579   92.1414    3.0542 H       1  UNL1        0.1437
     36 H          64.8574   92.1454    1.3755 H       1  UNL1        0.1437
@<TRIPOS>BOND
     1    28    29    1
     2    29    30   ar
     3    30    31   ar
     4    31    27    1
     5    27    20    1
     6    20    21    1
     7    21    22    1
     8    22    23    1
     9    23    24    1
    10    23     1    1
    11     1     2    2
    12     1     3   am
    13     3     4    1
    14     4     5    1
    15     5     6    1
    16     6     9    1
    17     9    10    1
    18    10    11    1
    19    11    12    1
    20    12    13    1
    21    13    14   ar
    22    14    15   ar
    23    15    16   ar
    24    16    17   ar
    25    17    18   ar
    26    18    19    1
    27     6     7    1
    28     7     8    1
    29    23    25    1
    30    25    26    1
    31    31    32   ar
    32    32    33   ar
    33    33    34   ar
    34    34    29   ar
    35    26    20    1
    36     8     3    1
    37    19     9    1
    38    18    13   ar
    39    28    35    1
    40    28    36    1
@<TRIPOS>MOLECULE
*****
 36 40 0 0 0
SMALL
GASTEIGER

@<TRIPOS>ATOM
      1 C          64.0878   90.5075   16.0218 C.2     1  UNL1        0.2553
      2 O          63.5587   91.0053   17.3342 O.2     1  UNL1       -0.2720
      3 N          63.8551   89.0838   15.6108 N.am    1  UNL1       -0.2773
      4 C          63.0933   88.1579   16.5121 C.3     1  UNL1        0.0949
      5 C          62.8605   86.7342   16.1010 C.3     1  UNL1        0.0375
      6 C          63.3897   86.2364   14.7886 C.3     1  UNL1        0.0612
      7 C          64.1515   87.1623   13.8874 C.3     1  UNL1        0.0375
      8 C          64.3842   88.5860   14.2984 C.3     1  UNL1        0.0949
      9 N          63.1570   84.8128   14.3776 N.3     1  UNL1       -0.2702
     10 C          62.5842   83.9155   15.4344 C.3     1  UNL1        0.0727
     11 C          62.2408   82.4585   15.3388 C.3     1  UNL1        0.0220
     12 C          62.3854   81.5389   14.1626 C.3     1  UNL1        0.0275
     13 C          62.9090   81.8491   12.7916 C.ar    1  UNL1       -0.0248
     14 C          62.8837   80.6371   11.9081 C.ar    1  UNL1       -0.0045
     15 C          63.3669   80.7317   10.4913 C.ar    1  UNL1       -0.0003
     16 C          63.8753   82.0383    9.9579 C.ar    1  UNL1       -0.0003
     17 C          63.9006   83.2502   10.8413 C.ar    1  UNL1       -0.0032
     18 C          63.4175   83.1556   12.2582 C.ar    1  UNL1       -0.0101
     19 C          63.5278   84.4745   12.9641 C.3     1  UNL1        0.0988
     20 N          64.8212   92.4235   12.2888 N.3     1  UNL1       -0.2688
     21 C          65.8694   92.9126   13.2438 C.3     1  UNL1        0.0756
     22 C          65.8836   92.4175   14.6597 C.3     1  UNL1        0.0590
     23 C          64.8496   91.4334   15.1205 C.3     1  UNL1        0.2042
     24 F          65.6332   91.6009   16.3886 F       1  UNL1       -0.2306
     25 C          63.8014   90.9444   14.1655 C.3     1  UNL1        0.0590
     26 C          63.7872   91.4394   12.7496 C.3     1  UNL1        0.0756
     27 C          64.8070   92.9186   10.8729 C.3     1  UNL1        0.0993
     28 N          69.5959   92.3614    8.9349 N.pl3   1  UNL1       -0.3426
     29 C          68.4394   93.2412    9.3071 C.ar    1  UNL1        0.1251
     30 C          67.2015   92.6400    9.9039 C.ar    1  UNL1        0.0310
     31 C          66.0449   93.5197   10.2761 C.ar    1  UNL1       -0.0018
     32 C          66.1263   95.0006   10.0514 C.ar    1  UNL1        0.0179
     33 C          67.3642   95.6017    9.4546 C.ar    1  UNL1        0.1000
     34 N          68.5207   94.7219    9.0824 N.ar    1  UNL1       -0.2296
     35 H          69.5425   91.3895    9.0824 H       1  UNL1        0.1437
     36 H          70.4084   92.7559    8.5432 H       1  UNL1        0.1437
@<TRIPOS>BOND
     1    28    29    1
     2    29    30   ar
     3    30    31   ar
     4    31    27    1
     5    27    20    1
     6    20    21    1
     7    21    22    1
     8    22    23    1
     9    23    24    1
    10    23     1    1
    11     1     2    2
    12     1     3   am
    13     3     4    1
    14     4     5    1
    15     5     6    1
    16     6     9    1
    17     9    10    1
    18    10    11    1
    19    11    12    1
    20    12    13    1
    21    13    14   ar
    22    14    15   ar
    23    15    16   ar
    24    16    17   ar
    25    17    18   ar
    26    18    19    1
    27     6     7    1
    28     7     8    1
    29    23    25    1
    30    25    26    1
    31    31    32   ar
    32    32    33   ar
    33    33    34   ar
    34    34    29   ar
    35    26    20    1
    36     8     3    1
    37    19     9    1
    38    18    13   ar
    39    28    35    1
    40    28    36    1
@<TRIPOS>MOLECULE
*****
 36 40 0 0 0
SMALL
GASTEIGER

@<TRIPOS>ATOM
      1 C          62.1718   89.8263   10.8404 C.2     1  UNL1        0.2553
      2 O          61.0673   90.3207    9.9539 O.2     1  UNL1       -0.2720
      3 N          62.2252   88.3807   11.2367 N.am    1  UNL1       -0.2773
      4 C          61.1743   87.4293   10.7464 C.3     1  UNL1        0.0949
      5 C          61.2277   85.9835   11.1427 C.3     1  UNL1        0.0375
      6 C          62.3322   85.4892   12.0292 C.3     1  UNL1        0.0612
      7 C          63.3831   86.4406   12.5195 C.3     1  UNL1        0.0375
      8 C          63.3297   87.8863   12.1232 C.3     1  UNL1        0.0949
      9 N          62.3856   84.0435   12.4255 N.3     1  UNL1       -0.2702
     10 C          62.2542   83.7658   13.8937 C.3     1  UNL1        0.0727
     11 C          62.2682   82.4427   14.6003 C.3     1  UNL1        0.0220
     12 C          62.4169   81.0705   14.0130 C.3     1  UNL1        0.0275
     13 C          62.5885   80.6824   12.5742 C.ar    1  UNL1       -0.0248
     14 C          62.7010   79.1949   12.4175 C.ar    1  UNL1       -0.0045
     15 C          62.8786   78.5958   11.0539 C.ar    1  UNL1       -0.0003
     16 C          62.9438   79.4841    9.8470 C.ar    1  UNL1       -0.0003
     17 C          62.8313   80.9716   10.0038 C.ar    1  UNL1       -0.0032
     18 C          62.6537   81.5708   11.3674 C.ar    1  UNL1       -0.0101
     19 C          62.5634   83.0666   11.3012 C.3     1  UNL1        0.0988
     20 N          64.5795   91.5885   13.8805 N.3     1  UNL1       -0.2688
     21 C          64.9561   92.2493   12.5876 C.3     1  UNL1        0.0756
     22 C          64.2776   91.8439   11.3127 C.3     1  UNL1        0.0590
     23 C          63.2227   90.7778   11.3307 C.3     1  UNL1        0.2042
     24 F          63.2343   91.1082    9.8675 F       1  UNL1       -0.2306
     25 C          62.8462   90.1170   12.6236 C.3     1  UNL1        0.0590
     26 C          63.5246   90.5223   13.8985 C.3     1  UNL1        0.0756
     27 C          65.2579   91.9939   15.1554 C.3     1  UNL1        0.0993
     28 N          69.9854   91.7162   13.0166 N.pl3   1  UNL1       -0.3426
     29 C          69.0666   92.2575   14.0716 C.ar    1  UNL1        0.1251
     30 C          67.6217   91.8551   14.0860 C.ar    1  UNL1        0.0310
     31 C          66.7029   92.3963   15.1410 C.ar    1  UNL1       -0.0018
     32 C          67.2291   93.3398   16.1816 C.ar    1  UNL1        0.0179
     33 C          68.6741   93.7422   16.1672 C.ar    1  UNL1        0.1000
     34 N          69.5928   93.2010   15.1122 N.ar    1  UNL1       -0.2296
     35 H          69.6400   91.0970   12.3336 H       1  UNL1        0.1437
     36 H          70.9337   91.9803   13.0071 H       1  UNL1        0.1437
@<TRIPOS>BOND
     1    28    29    1
     2    29    30   ar
     3    30    31   ar
     4    31    27    1
     5    27    20    1
     6    20    21    1
     7    21    22    1
     8    22    23    1
     9    23    24    1
    10    23     1    1
    11     1     2    2
    12     1     3   am
    13     3     4    1
    14     4     5    1
    15     5     6    1
    16     6     9    1
    17     9    10    1
    18    10    11    1
    19    11    12    1
    20    12    13    1
    21    13    14   ar
    22    14    15   ar
    23    15    16   ar
    24    16    17   ar
    25    17    18   ar
    26    18    19    1
    27     6     7    1
    28     7     8    1
    29    23    25    1
    30    25    26    1
    31    31    32   ar
    32    32    33   ar
    33    33    34   ar
    34    34    29   ar
    35    26    20    1
    36     8     3    1
    37    19     9    1
    38    18    13   ar
    39    28    35    1
    40    28    36    1
@<TRIPOS>MOLECULE
*****
 36 40 0 0 0
SMALL
GASTEIGER

@<TRIPOS>ATOM
      1 C          60.8102   87.8235   10.1063 C.2     1  UNL1        0.2553
      2 O          59.4056   88.2603    9.8125 O.2     1  UNL1       -0.2720
      3 N          61.6279   88.5620   11.1241 N.am    1  UNL1       -0.2773
      4 C          61.0411   89.7374   11.8480 C.3     1  UNL1        0.0949
      5 C          61.8588   90.4760   12.8658 C.3     1  UNL1        0.0375
      6 C          63.2634   90.0391   13.1596 C.3     1  UNL1        0.0612
      7 C          63.8503   88.8638   12.4357 C.3     1  UNL1        0.0375
      8 C          63.0326   88.1252   11.4179 C.3     1  UNL1        0.0949
      9 N          64.0811   90.7777   14.1773 N.3     1  UNL1       -0.2702
     10 C          63.3870   91.0852   15.4711 C.3     1  UNL1        0.0727
     11 C          63.9252   91.8020   16.6739 C.3     1  UNL1        0.0220
     12 C          65.2904   92.3884   16.8798 C.3     1  UNL1        0.0275
     13 C          66.4546   92.4028   15.9341 C.ar    1  UNL1       -0.0248
     14 C          67.6411   93.0955   16.5360 C.ar    1  UNL1       -0.0045
     15 C          68.9141   93.2198   15.7524 C.ar    1  UNL1       -0.0003
     16 C          69.0006   92.6513   14.3670 C.ar    1  UNL1       -0.0003
     17 C          67.8141   91.9586   13.7651 C.ar    1  UNL1       -0.0032
     18 C          66.5411   91.8343   14.5487 C.ar    1  UNL1       -0.0101
     19 C          65.4848   91.1111   13.7669 C.3     1  UNL1        0.0988
     20 N          62.8088   84.0647    9.9593 N.3     1  UNL1       -0.2688
     21 C          62.5179   84.4602    8.5418 C.3     1  UNL1        0.0756
     22 C          61.8121   85.7519    8.2534 C.3     1  UNL1        0.0590
     23 C          61.3971   86.6481    9.3823 C.3     1  UNL1        0.2042
     24 F          60.9024   87.4518    8.2164 F       1  UNL1       -0.2306
     25 C          61.6879   86.2526   10.7998 C.3     1  UNL1        0.0590
     26 C          62.3938   84.9609   11.0882 C.3     1  UNL1        0.0756
     27 C          63.5147   82.7730   10.2477 C.3     1  UNL1        0.0993
     28 N          64.3210   82.9365   15.3783 N.pl3   1  UNL1       -0.3426
     29 C          63.7991   82.2212   14.1675 C.ar    1  UNL1        0.1251
     30 C          63.9178   82.8547   12.8130 C.ar    1  UNL1        0.0310
     31 C          63.3959   82.1395   11.6021 C.ar    1  UNL1       -0.0018
     32 C          62.7552   80.7908   11.7458 C.ar    1  UNL1        0.0179
     33 C          62.6364   80.1574   13.1003 C.ar    1  UNL1        0.1000
     34 N          63.1584   80.8726   14.3111 N.ar    1  UNL1       -0.2296
     35 H          64.7415   83.8217   15.2839 H       1  UNL1        0.1437
     36 H          64.2431   82.5208   16.2673 H       1  UNL1        0.1437
@<TRIPOS>BOND
     1    28    29    1
     2    29    30   ar
     3    30    31   ar
     4    31    27    1
     5    27    20    1
     6    20    21    1
     7    21    22    1
     8    22    23    1
     9    23    24    1
    10    23     1    1
    11     1     2    2
    12     1     3   am
    13     3     4    1
    14     4     5    1
    15     5     6    1
    16     6     9    1
    17     9    10    1
    18    10    11    1
    19    11    12    1
    20    12    13    1
    21    13    14   ar
    22    14    15   ar
    23    15    16   ar
    24    16    17   ar
    25    17    18   ar
    26    18    19    1
    27     6     7    1
    28     7     8    1
    29    23    25    1
    30    25    26    1
    31    31    32   ar
    32    32    33   ar
    33    33    34   ar
    34    34    29   ar
    35    26    20    1
    36     8     3    1
    37    19     9    1
    38    18    13   ar
    39    28    35    1
    40    28    36    1
@<TRIPOS>MOLECULE
*****
 36 40 0 0 0
SMALL
GASTEIGER

@<TRIPOS>ATOM
      1 C          58.8170   89.2050    6.9241 C.2     1  UNL1        0.2553
      2 O          57.3552   89.1531    7.2569 O.2     1  UNL1       -0.2720
      3 N          59.3155   90.1614    5.8818 N.am    1  UNL1       -0.2773
      4 C          58.3522   91.0661    5.1720 C.3     1  UNL1        0.0949
      5 C          58.8507   92.0226    4.1296 C.3     1  UNL1        0.0375
      6 C          60.3124   92.0744    3.7969 C.3     1  UNL1        0.0612
      7 C          61.2757   91.1698    4.5067 C.3     1  UNL1        0.0375
      8 C          60.7772   90.2132    5.5491 C.3     1  UNL1        0.0949
      9 N          60.8109   93.0309    2.7546 N.3     1  UNL1       -0.2702
     10 C          59.7850   93.9650    2.1845 C.3     1  UNL1        0.0727
     11 C          59.9641   95.0258    1.1391 C.3     1  UNL1        0.0220
     12 C          61.2135   95.4143    0.4056 C.3     1  UNL1        0.0275
     13 C          62.5923   94.8382    0.5363 C.ar    1  UNL1       -0.0248
     14 C          63.5600   95.5181   -0.3863 C.ar    1  UNL1       -0.0045
     15 C          64.9976   95.0909   -0.4125 C.ar    1  UNL1       -0.0003
     16 C          65.4676   93.9839    0.4840 C.ar    1  UNL1       -0.0003
     17 C          64.4999   93.3040    1.4066 C.ar    1  UNL1       -0.0032
     18 C          63.0622   93.7312    1.4327 C.ar    1  UNL1       -0.0101
     19 C          62.2694   92.9269    2.4199 C.3     1  UNL1        0.0988
     20 N          61.5016   88.2497   10.0904 N.3     1  UNL1       -0.2688
     21 C          61.4807   87.0695    9.1648 C.3     1  UNL1        0.0756
     22 C          60.6200   87.0948    7.9366 C.3     1  UNL1        0.0590
     23 C          59.7803   88.3002    7.6339 C.3     1  UNL1        0.2042
     24 F          59.4248   87.4343    6.4619 F       1  UNL1       -0.2306
     25 C          59.8012   89.4805    8.5595 C.3     1  UNL1        0.0590
     26 C          60.6619   89.4552    9.7877 C.3     1  UNL1        0.0756
     27 C          62.3623   88.2244   11.3186 C.3     1  UNL1        0.0993
     28 N          64.6292   92.7701   10.2241 N.pl3   1  UNL1       -0.3426
     29 C          64.1873   91.7474   11.2285 C.ar    1  UNL1        0.1251
     30 C          63.4958   90.4973   10.7714 C.ar    1  UNL1        0.0310
     31 C          63.0539   89.4745   11.7758 C.ar    1  UNL1       -0.0018
     32 C          63.3036   89.7019   13.2372 C.ar    1  UNL1        0.0179
     33 C          63.9951   90.9520   13.6944 C.ar    1  UNL1        0.1000
     34 N          64.4370   91.9748   12.6899 N.ar    1  UNL1       -0.2296
     35 H          64.4653   92.6209    9.2649 H       1  UNL1        0.1437
     36 H          65.0831   93.5907   10.5241 H       1  UNL1        0.1437
@<TRIPOS>BOND
     1    28    29    1
     2    29    30   ar
     3    30    31   ar
     4    31    27    1
     5    27    20    1
     6    20    21    1
     7    21    22    1
     8    22    23    1
     9    23    24    1
    10    23     1    1
    11     1     2    2
    12     1     3   am
    13     3     4    1
    14     4     5    1
    15     5     6    1
    16     6     9    1
    17     9    10    1
    18    10    11    1
    19    11    12    1
    20    12    13    1
    21    13    14   ar
    22    14    15   ar
    23    15    16   ar
    24    16    17   ar
    25    17    18   ar
    26    18    19    1
    27     6     7    1
    28     7     8    1
    29    23    25    1
    30    25    26    1
    31    31    32   ar
    32    32    33   ar
    33    33    34   ar
    34    34    29   ar
    35    26    20    1
    36     8     3    1
    37    19     9    1
    38    18    13   ar
    39    28    35    1
    40    28    36    1
