@<TRIPOS>MOLECULE
*****
 31 34 0 0 0
SMALL
GASTEIGER

@<TRIPOS>ATOM
      1 C          62.0356   84.7718   16.0612 C.3     1  UNL1        0.0942
      2 N          62.7265   83.7691   15.1854 N.pl3   1  UNL1       -0.3039
      3 H          63.1136   82.9546   15.5803 H       1  UNL1        0.1496
      4 C          62.8275   84.0073   13.7079 C.ar    1  UNL1        0.2002
      5 N          62.1221   85.1762   13.0867 N.ar    1  UNL1       -0.2150
      6 C          62.2231   85.4144   11.6091 C.ar    1  UNL1        0.0895
      7 C          61.5177   86.5834   10.9879 C.ar    1  UNL1        0.0307
      8 C          61.6188   86.8215    9.5104 C.ar    1  UNL1        0.0592
      9 CL         60.9134   87.9905    8.8892 Cl      1  UNL1       -0.0822
     10 C          62.4252   85.8907    8.6541 C.ar    1  UNL1        0.0116
     11 C          63.1306   84.7218    9.2753 C.ar    1  UNL1        0.0071
     12 C          63.0296   84.4836   10.7528 C.ar    1  UNL1        0.0740
     13 C          63.7350   83.3146   11.3741 C.ar    1  UNL1        0.2643
     14 O          64.5414   82.3838   10.5178 O.2     1  UNL1       -0.2668
     15 N          63.6339   83.0765   12.8516 N.ar    1  UNL1       -0.2669
     16 C          64.3394   81.9075   13.4728 C.3     1  UNL1        0.1363
     17 C          62.8429   85.7426   16.8711 C.3     1  UNL1        0.0476
     18 C          64.4047   89.5089   14.9669 C.ar    1  UNL1        0.0358
     19 C          64.7752   88.1714   14.3978 C.ar    1  UNL1        0.0027
     20 C          64.2546   86.9160   15.0325 C.ar    1  UNL1       -0.0041
     21 C          63.3635   86.9981   16.2363 C.ar    1  UNL1       -0.0205
     22 C          62.9930   88.3355   16.8054 C.ar    1  UNL1       -0.0041
     23 C          63.5136   89.5909   16.1707 C.ar    1  UNL1        0.0027
     24 C          65.9665   93.2752   13.0626 C.ar    1  UNL1        0.1769
     25 C          65.0654   92.3605   12.2870 C.ar    1  UNL1        0.1389
     26 N          64.5449   91.1051   12.9218 N.ar    1  UNL1       -0.2218
     27 C          64.9253   90.7643   14.3321 C.ar    1  UNL1        0.1625
     28 N          65.8263   91.6789   15.1077 N.ar    1  UNL1       -0.2218
     29 C          66.3470   92.9344   14.4730 C.ar    1  UNL1        0.1389
     30 C          66.0835   94.8860   11.0276 C.3     1  UNL1        0.2526
     31 O          66.4871   94.5305   12.4278 O.3     1  UNL1       -0.4683
@<TRIPOS>BOND
     1    30    31    1
     2    31    24    1
     3    24    25   ar
     4    25    26   ar
     5    26    27   ar
     6    27    18    1
     7    18    19   ar
     8    19    20   ar
     9    20    21   ar
    10    21    17    1
    11    17     1    1
    12     1     2    1
    13     2     4    1
    14     4     5   ar
    15     5     6   ar
    16     6     7   ar
    17     7     8   ar
    18     8     9    1
    19     8    10   ar
    20    10    11   ar
    21    11    12   ar
    22    12    13   ar
    23    13    14    2
    24    13    15   ar
    25    15    16    1
    26    21    22   ar
    27    22    23   ar
    28    27    28   ar
    29    28    29   ar
    30    29    24   ar
    31    23    18   ar
    32    15     4   ar
    33    12     6   ar
    34     2     3    1
@<TRIPOS>MOLECULE
*****
 31 34 0 0 0
SMALL
GASTEIGER

@<TRIPOS>ATOM
      1 C          59.8908   89.5933   10.4562 C.3     1  UNL1        0.0942
      2 N          59.5209   88.1478   10.6093 N.pl3   1  UNL1       -0.3039
      3 H          58.5948   87.8974   10.8304 H       1  UNL1        0.1496
      4 C          60.5620   87.0836   10.4254 C.ar    1  UNL1        0.2002
      5 N          61.2443   86.4874   11.6208 N.ar    1  UNL1       -0.2150
      6 C          62.2854   85.4233   11.4370 C.ar    1  UNL1        0.0895
      7 C          62.9677   84.8271   12.6324 C.ar    1  UNL1        0.0307
      8 C          64.0087   83.7630   12.4486 C.ar    1  UNL1        0.0592
      9 CL         64.6911   83.1668   13.6440 Cl      1  UNL1       -0.0822
     10 C          64.3676   83.2951   11.0693 C.ar    1  UNL1        0.0116
     11 C          63.6853   83.8913    9.8739 C.ar    1  UNL1        0.0071
     12 C          62.6442   84.9554   10.0578 C.ar    1  UNL1        0.0740
     13 C          61.9619   85.5517    8.8623 C.ar    1  UNL1        0.2643
     14 O          62.3208   85.0838    7.4831 O.2     1  UNL1       -0.2668
     15 N          60.9209   86.6158    9.0462 N.ar    1  UNL1       -0.2669
     16 C          60.2385   87.2120    7.8508 C.3     1  UNL1        0.1363
     17 C          61.2304   89.9694    9.8959 C.3     1  UNL1        0.0476
     18 C          64.5263   91.3084   12.6516 C.ar    1  UNL1        0.0358
     19 C          64.4532   91.8459   11.2532 C.ar    1  UNL1        0.0027
     20 C          63.3546   91.3996   10.3346 C.ar    1  UNL1       -0.0041
     21 C          62.3291   90.4158   10.8145 C.ar    1  UNL1       -0.0205
     22 C          62.4022   89.8783   12.2130 C.ar    1  UNL1       -0.0041
     23 C          63.5008   90.3246   13.1316 C.ar    1  UNL1        0.0027
     24 C          67.8222   92.6476   15.4074 C.ar    1  UNL1        0.1769
     25 C          66.4010   92.6380   15.8871 C.ar    1  UNL1        0.1389
     26 N          65.3024   92.1916   14.9685 N.ar    1  UNL1       -0.2218
     27 C          65.6250   91.7548   13.5702 C.ar    1  UNL1        0.1625
     28 N          67.0461   91.7644   13.0905 N.ar    1  UNL1       -0.2218
     29 C          68.1448   92.2108   14.0091 C.ar    1  UNL1        0.1389
     30 C          69.4897   94.4760   16.1987 C.3     1  UNL1        0.2526
     31 O          68.9208   93.0939   16.3260 O.3     1  UNL1       -0.4683
@<TRIPOS>BOND
     1    30    31    1
     2    31    24    1
     3    24    25   ar
     4    25    26   ar
     5    26    27   ar
     6    27    18    1
     7    18    19   ar
     8    19    20   ar
     9    20    21   ar
    10    21    17    1
    11    17     1    1
    12     1     2    1
    13     2     4    1
    14     4     5   ar
    15     5     6   ar
    16     6     7   ar
    17     7     8   ar
    18     8     9    1
    19     8    10   ar
    20    10    11   ar
    21    11    12   ar
    22    12    13   ar
    23    13    14    2
    24    13    15   ar
    25    15    16    1
    26    21    22   ar
    27    22    23   ar
    28    27    28   ar
    29    28    29   ar
    30    29    24   ar
    31    23    18   ar
    32    15     4   ar
    33    12     6   ar
    34     2     3    1
@<TRIPOS>MOLECULE
*****
 31 34 0 0 0
SMALL
GASTEIGER

@<TRIPOS>ATOM
      1 C          63.7759   88.0532   15.6596 C.3     1  UNL1        0.0942
      2 N          64.4521   87.4596   14.4594 N.pl3   1  UNL1       -0.3039
      3 H          65.4322   87.3684   14.4415 H       1  UNL1        0.1496
      4 C          63.6349   87.0051   13.2864 C.ar    1  UNL1        0.2002
      5 N          62.9976   88.0158   12.3797 N.ar    1  UNL1       -0.2150
      6 C          62.1805   87.5613   11.2067 C.ar    1  UNL1        0.0895
      7 C          61.5431   88.5720   10.3000 C.ar    1  UNL1        0.0307
      8 C          60.7260   88.1175    9.1271 C.ar    1  UNL1        0.0592
      9 CL         60.0886   89.1282    8.2202 Cl      1  UNL1       -0.0822
     10 C          60.5463   86.6523    8.8609 C.ar    1  UNL1        0.0116
     11 C          61.1837   85.6416    9.7677 C.ar    1  UNL1        0.0071
     12 C          62.0007   86.0961   10.9406 C.ar    1  UNL1        0.0740
     13 C          62.6381   85.0854   11.8474 C.ar    1  UNL1        0.2643
     14 O          62.4584   83.6202   11.5812 O.2     1  UNL1       -0.2668
     15 N          63.4552   85.5399   13.0203 N.ar    1  UNL1       -0.2669
     16 C          64.0926   84.5292   13.9271 C.3     1  UNL1        0.1363
     17 C          63.5302   89.5313   15.7274 C.3     1  UNL1        0.0476
     18 C          65.4132   92.2669   12.6909 C.ar    1  UNL1        0.0358
     19 C          64.0491   91.6952   12.4413 C.ar    1  UNL1        0.0027
     20 C          63.4214   90.7833   13.4535 C.ar    1  UNL1       -0.0041
     21 C          64.1578   90.4432   14.7152 C.ar    1  UNL1       -0.0205
     22 C          65.5220   91.0150   14.9647 C.ar    1  UNL1       -0.0041
     23 C          66.1496   91.9268   13.9526 C.ar    1  UNL1        0.0027
     24 C          67.2962   95.0026    9.6543 C.ar    1  UNL1        0.1769
     25 C          66.6696   95.5737   10.8918 C.ar    1  UNL1        0.1389
     26 N          66.0420   94.6618   11.9039 N.ar    1  UNL1       -0.2218
     27 C          66.0409   93.1788   11.6786 C.ar    1  UNL1        0.1625
     28 N          66.6674   92.6077   10.4412 N.ar    1  UNL1       -0.2218
     29 C          67.2950   93.5196    9.4290 C.ar    1  UNL1        0.1389
     30 C          67.0644   96.8346    7.8266 C.3     1  UNL1        0.2526
     31 O          67.9238   95.9145    8.6421 O.3     1  UNL1       -0.4683
@<TRIPOS>BOND
     1    30    31    1
     2    31    24    1
     3    24    25   ar
     4    25    26   ar
     5    26    27   ar
     6    27    18    1
     7    18    19   ar
     8    19    20   ar
     9    20    21   ar
    10    21    17    1
    11    17     1    1
    12     1     2    1
    13     2     4    1
    14     4     5   ar
    15     5     6   ar
    16     6     7   ar
    17     7     8   ar
    18     8     9    1
    19     8    10   ar
    20    10    11   ar
    21    11    12   ar
    22    12    13   ar
    23    13    14    2
    24    13    15   ar
    25    15    16    1
    26    21    22   ar
    27    22    23   ar
    28    27    28   ar
    29    28    29   ar
    30    29    24   ar
    31    23    18   ar
    32    15     4   ar
    33    12     6   ar
    34     2     3    1
@<TRIPOS>MOLECULE
*****
 31 34 0 0 0
SMALL
GASTEIGER

@<TRIPOS>ATOM
      1 C          62.6944   89.0044   16.8564 C.3     1  UNL1        0.0942
      2 N          63.4919   90.1586   16.3258 N.pl3   1  UNL1       -0.3039
      3 H          64.0052   90.7278   16.9437 H       1  UNL1        0.1496
      4 C          63.5074   90.4458   14.8536 C.ar    1  UNL1        0.2002
      5 N          62.4542   89.8558   13.9632 N.ar    1  UNL1       -0.2150
      6 C          62.4697   90.1430   12.4910 C.ar    1  UNL1        0.0895
      7 C          61.4165   89.5530   11.6007 C.ar    1  UNL1        0.0307
      8 C          61.4320   89.8402   10.1286 C.ar    1  UNL1        0.0592
      9 CL         60.3788   89.2503    9.2382 Cl      1  UNL1       -0.0822
     10 C          62.5007   90.7173    9.5467 C.ar    1  UNL1        0.0116
     11 C          63.5539   91.3073   10.4370 C.ar    1  UNL1        0.0071
     12 C          63.5384   91.0201   11.9092 C.ar    1  UNL1        0.0740
     13 C          64.5916   91.6101   12.7996 C.ar    1  UNL1        0.2643
     14 O          65.6604   92.4872   12.2178 O.2     1  UNL1       -0.2668
     15 N          64.5761   91.3229   14.2717 N.ar    1  UNL1       -0.2669
     16 C          65.6293   91.9129   15.1621 C.3     1  UNL1        0.1363
     17 C          63.3875   87.7375   17.2621 C.3     1  UNL1        0.0476
     18 C          63.0939   84.0790   14.6584 C.ar    1  UNL1        0.0358
     19 C          64.1050   85.1422   14.3467 C.ar    1  UNL1        0.0027
     20 C          64.2029   86.3617   15.2146 C.ar    1  UNL1       -0.0041
     21 C          63.2896   86.5180   16.3942 C.ar    1  UNL1       -0.0205
     22 C          62.2785   85.4547   16.7059 C.ar    1  UNL1       -0.0041
     23 C          62.1806   84.2353   15.8381 C.ar    1  UNL1        0.0027
     24 C          62.8003   80.4205   12.0546 C.ar    1  UNL1        0.1769
     25 C          63.1997   81.7369   11.4564 C.ar    1  UNL1        0.1389
     26 N          63.2976   82.9563   12.3243 N.ar    1  UNL1       -0.2218
     27 C          62.9960   82.8595   13.7905 C.ar    1  UNL1        0.1625
     28 N          62.5966   81.5432   14.3887 N.ar    1  UNL1       -0.2218
     29 C          62.4987   80.3237   13.5208 C.ar    1  UNL1        0.1389
     30 C          62.8132   79.3304    9.6964 C.3     1  UNL1        0.2526
     31 O          62.7024   79.2011   11.1867 O.3     1  UNL1       -0.4683
@<TRIPOS>BOND
     1    30    31    1
     2    31    24    1
     3    24    25   ar
     4    25    26   ar
     5    26    27   ar
     6    27    18    1
     7    18    19   ar
     8    19    20   ar
     9    20    21   ar
    10    21    17    1
    11    17     1    1
    12     1     2    1
    13     2     4    1
    14     4     5   ar
    15     5     6   ar
    16     6     7   ar
    17     7     8   ar
    18     8     9    1
    19     8    10   ar
    20    10    11   ar
    21    11    12   ar
    22    12    13   ar
    23    13    14    2
    24    13    15   ar
    25    15    16    1
    26    21    22   ar
    27    22    23   ar
    28    27    28   ar
    29    28    29   ar
    30    29    24   ar
    31    23    18   ar
    32    15     4   ar
    33    12     6   ar
    34     2     3    1
@<TRIPOS>MOLECULE
*****
 31 34 0 0 0
SMALL
GASTEIGER

@<TRIPOS>ATOM
      1 C          61.4009   87.7534    8.8610 C.3     1  UNL1        0.0942
      2 N          60.9253   86.4223    9.3629 N.pl3   1  UNL1       -0.3039
      3 H          60.0410   86.0825    9.0948 H       1  UNL1        0.1496
      4 C          61.7969   85.6089   10.2733 C.ar    1  UNL1        0.2002
      5 N          61.6306   85.7119   11.7604 N.ar    1  UNL1       -0.2150
      6 C          62.5022   84.8986   12.6708 C.ar    1  UNL1        0.0895
      7 C          62.3359   85.0016   14.1579 C.ar    1  UNL1        0.0307
      8 C          63.2075   84.1882   15.0682 C.ar    1  UNL1        0.0592
      9 CL         63.0411   84.2912   16.5554 Cl      1  UNL1       -0.0822
     10 C          64.2455   83.2719   14.4913 C.ar    1  UNL1        0.0116
     11 C          64.4119   83.1689   13.0042 C.ar    1  UNL1        0.0071
     12 C          63.5403   83.9822   12.0939 C.ar    1  UNL1        0.0740
     13 C          63.7066   83.8792   10.6067 C.ar    1  UNL1        0.2643
     14 O          64.7446   82.9628   10.0298 O.2     1  UNL1       -0.2668
     15 N          62.8350   84.6926    9.6964 N.ar    1  UNL1       -0.2669
     16 C          63.0013   84.5896    8.2092 C.3     1  UNL1        0.1363
     17 C          60.9970   89.0109    9.5720 C.3     1  UNL1        0.0476
     18 C          63.9350   91.1279   12.2434 C.ar    1  UNL1        0.0358
     19 C          63.7486   91.5813   10.8257 C.ar    1  UNL1        0.0027
     20 C          62.7693   90.8756    9.9353 C.ar    1  UNL1       -0.0041
     21 C          61.9764   89.7166   10.4625 C.ar    1  UNL1       -0.0205
     22 C          62.1627   89.2633   11.8801 C.ar    1  UNL1       -0.0041
     23 C          63.1420   89.9690   12.7706 C.ar    1  UNL1        0.0027
     24 C          66.8730   93.2452   14.9147 C.ar    1  UNL1        0.1769
     25 C          66.5382   93.8147   13.5680 C.ar    1  UNL1        0.1389
     26 N          65.5589   93.1090   12.6776 N.ar    1  UNL1       -0.2218
     27 C          64.9143   91.8337   13.1339 C.ar    1  UNL1        0.1625
     28 N          65.2491   91.2642   14.4805 N.ar    1  UNL1       -0.2218
     29 C          66.2284   91.9699   15.3710 C.ar    1  UNL1        0.1389
     30 C          69.2761   93.4836   15.8730 C.3     1  UNL1        0.2526
     31 O          67.8523   93.9509   15.8051 O.3     1  UNL1       -0.4683
@<TRIPOS>BOND
     1    30    31    1
     2    31    24    1
     3    24    25   ar
     4    25    26   ar
     5    26    27   ar
     6    27    18    1
     7    18    19   ar
     8    19    20   ar
     9    20    21   ar
    10    21    17    1
    11    17     1    1
    12     1     2    1
    13     2     4    1
    14     4     5   ar
    15     5     6   ar
    16     6     7   ar
    17     7     8   ar
    18     8     9    1
    19     8    10   ar
    20    10    11   ar
    21    11    12   ar
    22    12    13   ar
    23    13    14    2
    24    13    15   ar
    25    15    16    1
    26    21    22   ar
    27    22    23   ar
    28    27    28   ar
    29    28    29   ar
    30    29    24   ar
    31    23    18   ar
    32    15     4   ar
    33    12     6   ar
    34     2     3    1
@<TRIPOS>MOLECULE
*****
 31 34 0 0 0
SMALL
GASTEIGER

@<TRIPOS>ATOM
      1 C          62.5872   88.9391   16.8206 C.3     1  UNL1        0.0942
      2 N          62.4118   89.3964   15.4029 N.pl3   1  UNL1       -0.3039
      3 H          61.6244   89.1088   14.8867 H       1  UNL1        0.1496
      4 C          63.4364   90.2919   14.7715 C.ar    1  UNL1        0.2002
      5 N          64.4869   90.9446   15.6201 N.ar    1  UNL1       -0.2150
      6 C          65.5114   91.8401   14.9888 C.ar    1  UNL1        0.0895
      7 C          66.5620   92.4929   15.8374 C.ar    1  UNL1        0.0307
      8 C          67.5864   93.3883   15.2060 C.ar    1  UNL1        0.0592
      9 CL         68.6370   94.0411   16.0546 Cl      1  UNL1       -0.0822
     10 C          67.5603   93.6310   13.7260 C.ar    1  UNL1        0.0116
     11 C          66.5097   92.9783   12.8774 C.ar    1  UNL1        0.0071
     12 C          65.4853   92.0828   13.5087 C.ar    1  UNL1        0.0740
     13 C          64.4347   91.4300   12.6601 C.ar    1  UNL1        0.2643
     14 O          64.4085   91.6727   11.1801 O.2     1  UNL1       -0.2668
     15 N          63.4102   90.5346   13.2915 N.ar    1  UNL1       -0.2669
     16 C          62.3596   89.8818   12.4429 C.3     1  UNL1        0.1363
     17 C          63.4366   87.7402   17.1223 C.3     1  UNL1        0.0476
     18 C          63.1169   84.0540   14.5612 C.ar    1  UNL1        0.0358
     19 C          64.1245   85.1140   14.2276 C.ar    1  UNL1        0.0027
     20 C          64.2311   86.3427   15.0813 C.ar    1  UNL1       -0.0041
     21 C          63.3301   86.5114   16.2686 C.ar    1  UNL1       -0.0205
     22 C          62.3225   85.4515   16.6021 C.ar    1  UNL1       -0.0041
     23 C          62.2159   84.2228   15.7484 C.ar    1  UNL1        0.0027
     24 C          62.7973   80.3677   11.9999 C.ar    1  UNL1        0.1769
     25 C          62.5971   80.2701   13.4834 C.ar    1  UNL1        0.1389
     26 N          62.7037   81.4988   14.3370 N.ar    1  UNL1       -0.2218
     27 C          63.0104   82.8252   13.7074 C.ar    1  UNL1        0.1625
     28 N          63.2106   82.9230   12.2241 N.ar    1  UNL1       -0.2218
     29 C          63.1040   81.6942   11.3703 C.ar    1  UNL1        0.1389
     30 C          62.8948   79.2360    9.6634 C.3     1  UNL1        0.2526
     31 O          62.6907   79.1390   11.1463 O.3     1  UNL1       -0.4683
@<TRIPOS>BOND
     1    30    31    1
     2    31    24    1
     3    24    25   ar
     4    25    26   ar
     5    26    27   ar
     6    27    18    1
     7    18    19   ar
     8    19    20   ar
     9    20    21   ar
    10    21    17    1
    11    17     1    1
    12     1     2    1
    13     2     4    1
    14     4     5   ar
    15     5     6   ar
    16     6     7   ar
    17     7     8   ar
    18     8     9    1
    19     8    10   ar
    20    10    11   ar
    21    11    12   ar
    22    12    13   ar
    23    13    14    2
    24    13    15   ar
    25    15    16    1
    26    21    22   ar
    27    22    23   ar
    28    27    28   ar
    29    28    29   ar
    30    29    24   ar
    31    23    18   ar
    32    15     4   ar
    33    12     6   ar
    34     2     3    1
@<TRIPOS>MOLECULE
*****
 31 34 0 0 0
SMALL
GASTEIGER

@<TRIPOS>ATOM
      1 C          64.2431   82.9562   13.4200 C.3     1  UNL1        0.0942
      2 N          65.1396   83.9013   14.1637 N.pl3   1  UNL1       -0.3039
      3 H          66.1060   83.7220   14.2195 H       1  UNL1        0.1496
      4 C          64.5637   85.1198   14.8223 C.ar    1  UNL1        0.2002
      5 N          64.9822   86.4866   14.3678 N.ar    1  UNL1       -0.2150
      6 C          64.4062   87.7051   15.0264 C.ar    1  UNL1        0.0895
      7 C          64.8248   89.0719   14.5719 C.ar    1  UNL1        0.0307
      8 C          64.2488   90.2903   15.2305 C.ar    1  UNL1        0.0592
      9 CL         64.6673   91.6572   14.7760 Cl      1  UNL1       -0.0822
     10 C          63.2543   90.1418   16.3436 C.ar    1  UNL1        0.0116
     11 C          62.8358   88.7750   16.7981 C.ar    1  UNL1        0.0071
     12 C          63.4117   87.5566   16.1395 C.ar    1  UNL1        0.0740
     13 C          62.9932   86.1897   16.5940 C.ar    1  UNL1        0.2643
     14 O          61.9987   86.0413   17.7071 O.2     1  UNL1       -0.2668
     15 N          63.5692   84.9714   15.9354 N.ar    1  UNL1       -0.2669
     16 C          63.1507   83.6044   16.3899 C.3     1  UNL1        0.1363
     17 C          64.2461   82.9434   11.9201 C.3     1  UNL1        0.0476
     18 C          61.7871   85.9439    9.6397 C.ar    1  UNL1        0.0358
     19 C          62.7849   85.0879    8.9175 C.ar    1  UNL1        0.0027
     20 C          63.6045   84.0878    9.6776 C.ar    1  UNL1       -0.0041
     21 C          63.4264   83.9436   11.1599 C.ar    1  UNL1       -0.0205
     22 C          62.4286   84.7996   11.8822 C.ar    1  UNL1       -0.0041
     23 C          61.6089   85.7998   11.1221 C.ar    1  UNL1        0.0027
     24 C          59.3281   88.9445    7.3592 C.ar    1  UNL1        0.1769
     25 C          59.2753   87.4926    6.9858 C.ar    1  UNL1        0.1389
     26 N          60.0950   86.4925    7.7460 N.ar    1  UNL1       -0.2218
     27 C          60.9674   86.9441    8.8795 C.ar    1  UNL1        0.1625
     28 N          61.0202   88.3960    9.2529 N.ar    1  UNL1       -0.2218
     29 C          60.2005   89.3962    8.4927 C.ar    1  UNL1        0.1389
     30 C          59.1291   90.7278    5.4804 C.3     1  UNL1        0.2526
     31 O          58.5084   89.9446    6.5990 O.3     1  UNL1       -0.4683
@<TRIPOS>BOND
     1    30    31    1
     2    31    24    1
     3    24    25   ar
     4    25    26   ar
     5    26    27   ar
     6    27    18    1
     7    18    19   ar
     8    19    20   ar
     9    20    21   ar
    10    21    17    1
    11    17     1    1
    12     1     2    1
    13     2     4    1
    14     4     5   ar
    15     5     6   ar
    16     6     7   ar
    17     7     8   ar
    18     8     9    1
    19     8    10   ar
    20    10    11   ar
    21    11    12   ar
    22    12    13   ar
    23    13    14    2
    24    13    15   ar
    25    15    16    1
    26    21    22   ar
    27    22    23   ar
    28    27    28   ar
    29    28    29   ar
    30    29    24   ar
    31    23    18   ar
    32    15     4   ar
    33    12     6   ar
    34     2     3    1
