@<TRIPOS>MOLECULE
*****
 39 42 0 0 0
SMALL
GASTEIGER

@<TRIPOS>ATOM
      1 C          61.6406   89.2723   10.7278 C.3     1  UNL1        0.0849
      2 C          61.4914   88.7503    9.3295 C.3     1  UNL1        0.0206
      3 C          61.1907   90.1372    8.8438 C.3     1  UNL1        0.0035
      4 C          61.3399   90.6592   10.2421 C.3     1  UNL1        0.0206
      5 C          61.9412   87.8853   11.2136 C.ar    1  UNL1       -0.0077
      6 C          61.1247   86.7259   10.7247 C.ar    1  UNL1       -0.0030
      7 C          61.4253   85.3390   11.2105 C.ar    1  UNL1       -0.0002
      8 C          62.5426   85.1115   12.1852 C.ar    1  UNL1        0.0029
      9 C          63.3592   86.2709   12.6740 C.ar    1  UNL1       -0.0002
     10 C          63.0585   87.6578   12.1882 C.ar    1  UNL1       -0.0030
     11 C          62.8433   83.7245   12.6710 C.ar    1  UNL1        0.0343
     12 C          63.4142   82.7070   11.7283 C.ar    1  UNL1        0.0030
     13 C          63.7148   81.3200   12.2141 C.ar    1  UNL1        0.0002
     14 C          63.4446   80.9506   13.6426 C.ar    1  UNL1        0.0031
     15 C          62.8736   81.9682   14.5852 C.ar    1  UNL1        0.0372
     16 C          62.5730   83.3551   14.0994 C.ar    1  UNL1        0.1467
     17 O          62.0021   84.3728   15.0421 O.3     1  UNL1       -0.4045
     18 C          62.8937   85.0608   16.0328 C.3     1  UNL1        0.5753
     19 F          63.7854   85.7489   17.0235 F       1  UNL1       -0.1328
     20 F          64.0998   84.5321   15.3145 F       1  UNL1       -0.1328
     21 F          61.6877   85.5896   16.7511 F       1  UNL1       -0.1328
     22 N          61.7898   89.7943   12.1260 N.3     1  UNL1       -0.1487
     23 S          63.0810   90.4240   12.5578 S.O2    1  UNL1        0.0638
     24 O          63.4191   90.7128   11.1252 O.2     1  UNL1       -0.1528
     25 O          62.7428   90.1353   13.9904 O.2     1  UNL1       -0.1528
     26 C          64.3721   91.0537   12.9894 C.ar    1  UNL1        0.1224
     27 C          64.9936   90.6683   14.2991 C.ar    1  UNL1        0.0230
     28 C          66.2847   91.2980   14.7308 C.ar    1  UNL1        0.0385
     29 C          66.9545   92.3131   13.8528 C.ar    1  UNL1        0.1444
     30 C          66.3331   92.6986   12.5431 C.ar    1  UNL1        0.0385
     31 C          65.0419   92.0689   12.1114 C.ar    1  UNL1        0.0230
     32 O          68.2457   92.9428   14.2844 O.3     1  UNL1       -0.4236
     33 C          68.4898   93.2341   15.7355 C.3     1  UNL1        0.5087
     34 F          68.7425   94.6425   16.1855 F       1  UNL1       -0.1550
     35 F          68.4812   92.1170   16.7365 F       1  UNL1       -0.1550
     36 C          60.6478   89.6867   13.0927 C.3     1  UNL1        0.1374
     37 O          58.3059   88.5731   12.9320 O.co2   1  UNL1       -0.5477
     38 C          59.2349   89.6996   12.5888 C.2     1  UNL1        0.0683
     39 O          58.7512   90.8392   11.7418 O.co2   1  UNL1       -0.5477
@<TRIPOS>UNITY_ATOM_ATTR
37 1
charge -1
@<TRIPOS>BOND
     1    37    38   ar
     2    38    39   ar
     3    38    36    1
     4    36    22    1
     5    22     1    1
     6     1     5    1
     7     5     6   ar
     8     6     7   ar
     9     7     8   ar
    10     8    11    1
    11    11    12   ar
    12    12    13   ar
    13    13    14   ar
    14    14    15   ar
    15    15    16   ar
    16    16    17    1
    17    17    18    1
    18    18    19    1
    19    18    20    1
    20    18    21    1
    21     8     9   ar
    22     9    10   ar
    23     1     2    1
    24     2     3    1
    25     3     4    1
    26    22    23    1
    27    23    24    2
    28    23    25    2
    29    23    26    1
    30    26    27   ar
    31    27    28   ar
    32    28    29   ar
    33    29    32    1
    34    32    33    1
    35    33    34    1
    36    33    35    1
    37    29    30   ar
    38    30    31   ar
    39     4     1    1
    40    31    26   ar
    41    10     5   ar
    42    16    11   ar
@<TRIPOS>MOLECULE
*****
 39 42 0 0 0
SMALL
GASTEIGER

@<TRIPOS>ATOM
      1 C          60.6236   88.0697    9.0914 C.3     1  UNL1        0.0849
      2 C          60.6749   87.2972    7.8067 C.3     1  UNL1        0.0206
      3 C          60.0562   88.4572    7.0844 C.3     1  UNL1        0.0035
      4 C          60.0049   89.2297    8.3692 C.3     1  UNL1        0.0206
      5 C          61.2422   86.9097    9.8137 C.ar    1  UNL1       -0.0077
      6 C          62.2517   86.0452    9.1183 C.ar    1  UNL1       -0.0030
      7 C          62.8703   84.8853    9.8406 C.ar    1  UNL1       -0.0002
      8 C          62.4794   84.5898   11.2583 C.ar    1  UNL1        0.0029
      9 C          61.4699   85.4542   11.9537 C.ar    1  UNL1       -0.0002
     10 C          60.8513   86.6142   11.2314 C.ar    1  UNL1       -0.0030
     11 C          63.0981   83.4297   11.9806 C.ar    1  UNL1        0.0343
     12 C          62.8002   82.0271   11.5406 C.ar    1  UNL1        0.0030
     13 C          63.4188   80.8670   12.2629 C.ar    1  UNL1        0.0002
     14 C          64.3354   81.1098   13.4252 C.ar    1  UNL1        0.0031
     15 C          64.6333   82.5125   13.8653 C.ar    1  UNL1        0.0372
     16 C          64.0146   83.6725   13.1430 C.ar    1  UNL1        0.1467
     17 O          64.3125   85.0753   13.5830 O.3     1  UNL1       -0.4045
     18 C          64.1497   85.4599   15.0237 C.3     1  UNL1        0.5753
     19 F          63.9869   85.8446   16.4643 F       1  UNL1       -0.1328
     20 F          65.5321   86.0421   15.0244 F       1  UNL1       -0.1328
     21 F          62.7673   84.8777   15.0229 F       1  UNL1       -0.1328
     22 N          60.5723   88.8423   10.3761 N.3     1  UNL1       -0.1487
     23 S          61.7406   89.6869   10.7906 S.O2    1  UNL1        0.0638
     24 O          61.8319   88.9274   12.0808 O.2     1  UNL1       -0.1528
     25 O          61.6492   90.4464    9.5002 O.2     1  UNL1       -0.1528
     26 C          62.9088   90.5315   11.2051 C.ar    1  UNL1        0.1224
     27 C          63.5660   91.4425   10.2109 C.ar    1  UNL1        0.0230
     28 C          64.7342   92.2870   10.6253 C.ar    1  UNL1        0.0385
     29 C          65.2454   92.2207   12.0340 C.ar    1  UNL1        0.1444
     30 C          64.5883   91.3098   13.0282 C.ar    1  UNL1        0.0385
     31 C          63.4200   90.4651   12.6137 C.ar    1  UNL1        0.0230
     32 O          66.4136   93.0653   12.4485 O.3     1  UNL1       -0.4236
     33 C          67.0795   92.8270   13.7714 C.3     1  UNL1        0.5087
     34 F          66.7288   93.6826   14.9524 F       1  UNL1       -0.1550
     35 F          68.0961   91.7332   13.9131 F       1  UNL1       -0.1550
     36 C          59.3527   88.7702   11.2464 C.3     1  UNL1        0.1374
     37 O          58.7551   91.2508   11.7360 O.co2   1  UNL1       -0.5477
     38 C          59.0654   89.8680   12.2274 C.2     1  UNL1        0.0683
     39 O          59.0885   89.5830   13.6999 O.co2   1  UNL1       -0.5477
@<TRIPOS>UNITY_ATOM_ATTR
37 1
charge -1
@<TRIPOS>BOND
     1    37    38   ar
     2    38    39   ar
     3    38    36    1
     4    36    22    1
     5    22     1    1
     6     1     5    1
     7     5     6   ar
     8     6     7   ar
     9     7     8   ar
    10     8    11    1
    11    11    12   ar
    12    12    13   ar
    13    13    14   ar
    14    14    15   ar
    15    15    16   ar
    16    16    17    1
    17    17    18    1
    18    18    19    1
    19    18    20    1
    20    18    21    1
    21     8     9   ar
    22     9    10   ar
    23     1     2    1
    24     2     3    1
    25     3     4    1
    26    22    23    1
    27    23    24    2
    28    23    25    2
    29    23    26    1
    30    26    27   ar
    31    27    28   ar
    32    28    29   ar
    33    29    32    1
    34    32    33    1
    35    33    34    1
    36    33    35    1
    37    29    30   ar
    38    30    31   ar
    39     4     1    1
    40    31    26   ar
    41    10     5   ar
    42    16    11   ar
@<TRIPOS>MOLECULE
*****
 39 42 0 0 0
SMALL
GASTEIGER

@<TRIPOS>ATOM
      1 C          60.3513   89.3183   11.4825 C.3     1  UNL1        0.0849
      2 C          59.6723   90.0699   12.5888 C.3     1  UNL1        0.0206
      3 C          58.3436   89.5490   12.1273 C.3     1  UNL1        0.0035
      4 C          59.0225   88.7974   11.0209 C.3     1  UNL1        0.0206
      5 C          61.6801   89.8393   11.9440 C.ar    1  UNL1       -0.0077
      6 C          62.4495   90.7979   11.0844 C.ar    1  UNL1       -0.0030
      7 C          63.7782   91.3188   11.5460 C.ar    1  UNL1       -0.0002
      8 C          64.3376   90.8810   12.8671 C.ar    1  UNL1        0.0029
      9 C          63.5682   89.9223   13.7267 C.ar    1  UNL1       -0.0002
     10 C          62.2394   89.4014   13.2651 C.ar    1  UNL1       -0.0030
     11 C          65.6664   91.4019   13.3287 C.ar    1  UNL1        0.0343
     12 C          66.0821   91.2330   14.7600 C.ar    1  UNL1        0.0030
     13 C          67.4109   91.7539   15.2215 C.ar    1  UNL1        0.0002
     14 C          68.3240   92.4437   14.2517 C.ar    1  UNL1        0.0031
     15 C          67.9082   92.6125   12.8204 C.ar    1  UNL1        0.0372
     16 C          66.5795   92.0916   12.3589 C.ar    1  UNL1        0.1467
     17 O          66.1637   92.2605   10.9275 O.3     1  UNL1       -0.4045
     18 C          67.0597   92.9845    9.9667 C.3     1  UNL1        0.5753
     19 F          67.9556   93.7084    9.0059 F       1  UNL1       -0.1328
     20 F          66.3299   94.2639   10.2503 F       1  UNL1       -0.1328
     21 F          67.7894   91.7050    9.6831 F       1  UNL1       -0.1328
     22 N          61.0302   88.5668   10.3761 N.3     1  UNL1       -0.1487
     23 S          61.7233   87.2685   10.6665 S.O2    1  UNL1        0.0638
     24 O          60.6631   86.9273   11.6712 O.2     1  UNL1       -0.1528
     25 O          62.7836   87.6098    9.6617 O.2     1  UNL1       -0.1528
     26 C          62.4164   85.9704   10.9569 C.ar    1  UNL1        0.1224
     27 C          62.8265   85.0704    9.8291 C.ar    1  UNL1        0.0230
     28 C          63.5196   83.7722   10.1195 C.ar    1  UNL1        0.0385
     29 C          63.8025   83.3739   11.5377 C.ar    1  UNL1        0.1444
     30 C          63.3924   84.2738   12.6655 C.ar    1  UNL1        0.0385
     31 C          62.6993   85.5721   12.3751 C.ar    1  UNL1        0.0230
     32 O          64.4955   82.0758   11.8282 O.3     1  UNL1       -0.4236
     33 C          63.7829   80.9997   12.5925 C.3     1  UNL1        0.5087
     34 F          64.1132   80.7608   14.0360 F       1  UNL1       -0.1550
     35 F          62.7399   80.1625   11.9133 F       1  UNL1       -0.1550
     36 C          61.0161   89.1133    8.9793 C.3     1  UNL1        0.1374
     37 O          59.5012   89.4817    6.9009 O.co2   1  UNL1       -0.5477
     38 C          60.0354   88.5824    7.9760 C.2     1  UNL1        0.0683
     39 O          59.5889   87.1522    8.0480 O.co2   1  UNL1       -0.5477
@<TRIPOS>UNITY_ATOM_ATTR
37 1
charge -1
@<TRIPOS>BOND
     1    37    38   ar
     2    38    39   ar
     3    38    36    1
     4    36    22    1
     5    22     1    1
     6     1     5    1
     7     5     6   ar
     8     6     7   ar
     9     7     8   ar
    10     8    11    1
    11    11    12   ar
    12    12    13   ar
    13    13    14   ar
    14    14    15   ar
    15    15    16   ar
    16    16    17    1
    17    17    18    1
    18    18    19    1
    19    18    20    1
    20    18    21    1
    21     8     9   ar
    22     9    10   ar
    23     1     2    1
    24     2     3    1
    25     3     4    1
    26    22    23    1
    27    23    24    2
    28    23    25    2
    29    23    26    1
    30    26    27   ar
    31    27    28   ar
    32    28    29   ar
    33    29    32    1
    34    32    33    1
    35    33    34    1
    36    33    35    1
    37    29    30   ar
    38    30    31   ar
    39     4     1    1
    40    31    26   ar
    41    10     5   ar
    42    16    11   ar
@<TRIPOS>MOLECULE
*****
 39 42 0 0 0
SMALL
GASTEIGER

@<TRIPOS>ATOM
      1 C          61.7017   89.2071   10.7579 C.3     1  UNL1        0.0849
      2 C          61.5598   88.6735    9.3633 C.3     1  UNL1        0.0206
      3 C          61.2906   90.0606    8.8600 C.3     1  UNL1        0.0035
      4 C          61.4325   90.5942   10.2546 C.3     1  UNL1        0.0206
      5 C          61.9709   87.8199   11.2613 C.ar    1  UNL1       -0.0077
      6 C          63.1407   87.5637   12.1645 C.ar    1  UNL1       -0.0030
      7 C          63.4098   86.1765   12.6679 C.ar    1  UNL1       -0.0002
      8 C          62.5091   85.0457   12.2680 C.ar    1  UNL1        0.0029
      9 C          61.3393   85.3019   11.3648 C.ar    1  UNL1       -0.0002
     10 C          61.0702   86.6890   10.8615 C.ar    1  UNL1       -0.0030
     11 C          62.7783   83.6585   12.7714 C.ar    1  UNL1        0.0343
     12 C          62.8826   83.4027   14.2457 C.ar    1  UNL1        0.0030
     13 C          63.1518   82.0155   14.7491 C.ar    1  UNL1        0.0002
     14 C          63.3166   80.8842   13.7781 C.ar    1  UNL1        0.0031
     15 C          63.2123   81.1400   12.3038 C.ar    1  UNL1        0.0372
     16 C          62.9432   82.5271   11.8004 C.ar    1  UNL1        0.1467
     17 O          62.8389   82.7829   10.3260 O.3     1  UNL1       -0.4045
     18 C          63.7443   83.7846    9.6728 C.3     1  UNL1        0.5753
     19 F          64.6498   84.7863    9.0195 F       1  UNL1       -0.1328
     20 F          64.8905   83.2916   10.5054 F       1  UNL1       -0.1328
     21 F          62.5982   84.2776    8.8401 F       1  UNL1       -0.1328
     22 N          61.8436   89.7407   12.1526 N.3     1  UNL1       -0.1487
     23 S          63.1288   90.3837   12.5825 S.O2    1  UNL1        0.0638
     24 O          63.4190   90.7556   11.1586 O.2     1  UNL1       -0.1528
     25 O          62.8386   90.0117   14.0064 O.2     1  UNL1       -0.1528
     26 C          64.4140   91.0267   13.0123 C.ar    1  UNL1        0.1224
     27 C          65.0485   90.6376   14.3147 C.ar    1  UNL1        0.0230
     28 C          66.3337   91.2805   14.7446 C.ar    1  UNL1        0.0385
     29 C          66.9845   92.3126   13.8721 C.ar    1  UNL1        0.1444
     30 C          66.3501   92.7017   12.5698 C.ar    1  UNL1        0.0385
     31 C          65.0648   92.0588   12.1399 C.ar    1  UNL1        0.0230
     32 O          68.2697   92.9556   14.3019 O.3     1  UNL1       -0.4236
     33 C          68.5127   93.2497   15.7527 C.3     1  UNL1        0.5087
     34 F          68.7422   94.6618   16.2035 F       1  UNL1       -0.1550
     35 F          68.5263   92.1315   16.7525 F       1  UNL1       -0.1550
     36 C          60.7003   89.6313   13.1174 C.3     1  UNL1        0.1374
     37 O          58.3461   88.5441   12.9559 O.co2   1  UNL1       -0.5477
     38 C          59.2878   89.6601   12.6130 C.2     1  UNL1        0.0683
     39 O          58.8173   90.8049   11.7656 O.co2   1  UNL1       -0.5477
@<TRIPOS>UNITY_ATOM_ATTR
37 1
charge -1
@<TRIPOS>BOND
     1    37    38   ar
     2    38    39   ar
     3    38    36    1
     4    36    22    1
     5    22     1    1
     6     1     5    1
     7     5     6   ar
     8     6     7   ar
     9     7     8   ar
    10     8    11    1
    11    11    12   ar
    12    12    13   ar
    13    13    14   ar
    14    14    15   ar
    15    15    16   ar
    16    16    17    1
    17    17    18    1
    18    18    19    1
    19    18    20    1
    20    18    21    1
    21     8     9   ar
    22     9    10   ar
    23     1     2    1
    24     2     3    1
    25     3     4    1
    26    22    23    1
    27    23    24    2
    28    23    25    2
    29    23    26    1
    30    26    27   ar
    31    27    28   ar
    32    28    29   ar
    33    29    32    1
    34    32    33    1
    35    33    34    1
    36    33    35    1
    37    29    30   ar
    38    30    31   ar
    39     4     1    1
    40    31    26   ar
    41    10     5   ar
    42    16    11   ar
@<TRIPOS>MOLECULE
*****
 39 42 0 0 0
SMALL
GASTEIGER

@<TRIPOS>ATOM
      1 C          63.3975   89.1247   12.7912 C.3     1  UNL1        0.0849
      2 C          64.5591   88.9100   13.7155 C.3     1  UNL1        0.0206
      3 C          63.9491   87.6218   14.1829 C.3     1  UNL1        0.0035
      4 C          62.7875   87.8365   13.2585 C.3     1  UNL1        0.0206
      5 C          64.0075   90.4129   12.3237 C.ar    1  UNL1       -0.0077
      6 C          63.7778   90.8852   10.9187 C.ar    1  UNL1       -0.0030
      7 C          64.3878   92.1734   10.4514 C.ar    1  UNL1       -0.0002
      8 C          65.2275   92.9892   11.3890 C.ar    1  UNL1        0.0029
      9 C          65.4572   92.5170   12.7940 C.ar    1  UNL1       -0.0002
     10 C          64.8472   91.2288   13.2614 C.ar    1  UNL1       -0.0030
     11 C          65.8375   94.2775   10.9216 C.ar    1  UNL1        0.0343
     12 C          65.5099   95.5612   11.6249 C.ar    1  UNL1        0.0030
     13 C          66.1199   96.8494   11.1575 C.ar    1  UNL1        0.0002
     14 C          67.0575   96.8539    9.9867 C.ar    1  UNL1        0.0031
     15 C          67.3852   95.5701    9.2833 C.ar    1  UNL1        0.0372
     16 C          66.7752   94.2819    9.7508 C.ar    1  UNL1        0.1467
     17 O          67.1028   92.9982    9.0474 O.3     1  UNL1       -0.4045
     18 C          68.5271   92.5374    8.9524 C.3     1  UNL1        0.5753
     19 F          69.9514   92.0766    8.8574 F       1  UNL1       -0.1328
     20 F          68.6344   93.1504    7.5876 F       1  UNL1       -0.1328
     21 F          68.4199   91.9244   10.3172 F       1  UNL1       -0.1328
     22 N          62.2359   89.3394   11.8668 N.3     1  UNL1       -0.1487
     23 S          61.9685   88.3638   10.7592 S.O2    1  UNL1        0.0638
     24 O          61.7777   87.2705   11.7682 O.2     1  UNL1       -0.1528
     25 O          62.1592   89.4572    9.7501 O.2     1  UNL1       -0.1528
     26 C          61.7011   87.3882    9.6516 C.ar    1  UNL1        0.1224
     27 C          62.7504   86.3895    9.2621 C.ar    1  UNL1        0.0230
     28 C          62.4830   85.4140    8.1546 C.ar    1  UNL1        0.0385
     29 C          61.1663   85.4370    7.4365 C.ar    1  UNL1        0.1444
     30 C          60.1169   86.4355    7.8259 C.ar    1  UNL1        0.0385
     31 C          60.3843   87.4112    8.9335 C.ar    1  UNL1        0.0230
     32 O          60.8989   84.4614    6.3290 O.3     1  UNL1       -0.4236
     33 C          61.8858   84.3083    5.2097 C.3     1  UNL1        0.5087
     34 F          63.3570   84.3861    5.4912 F       1  UNL1       -0.1550
     35 F          61.4013   84.0774    3.8090 F       1  UNL1       -0.1550
     36 C          61.3417   90.5297   12.0500 C.3     1  UNL1        0.1374
     37 O          58.9805   91.3951   11.3970 O.co2   1  UNL1       -0.5477
     38 C          59.8516   90.3569   12.0400 C.2     1  UNL1        0.0683
     39 O          59.2327   89.1460   12.6729 O.co2   1  UNL1       -0.5477
@<TRIPOS>UNITY_ATOM_ATTR
37 1
charge -1
@<TRIPOS>BOND
     1    37    38   ar
     2    38    39   ar
     3    38    36    1
     4    36    22    1
     5    22     1    1
     6     1     5    1
     7     5     6   ar
     8     6     7   ar
     9     7     8   ar
    10     8    11    1
    11    11    12   ar
    12    12    13   ar
    13    13    14   ar
    14    14    15   ar
    15    15    16   ar
    16    16    17    1
    17    17    18    1
    18    18    19    1
    19    18    20    1
    20    18    21    1
    21     8     9   ar
    22     9    10   ar
    23     1     2    1
    24     2     3    1
    25     3     4    1
    26    22    23    1
    27    23    24    2
    28    23    25    2
    29    23    26    1
    30    26    27   ar
    31    27    28   ar
    32    28    29   ar
    33    29    32    1
    34    32    33    1
    35    33    34    1
    36    33    35    1
    37    29    30   ar
    38    30    31   ar
    39     4     1    1
    40    31    26   ar
    41    10     5   ar
    42    16    11   ar
@<TRIPOS>MOLECULE
*****
 39 42 0 0 0
SMALL
GASTEIGER

@<TRIPOS>ATOM
      1 C          63.5032   90.0787   14.2337 C.3     1  UNL1        0.0849
      2 C          64.0377   90.8040   15.4330 C.3     1  UNL1        0.0206
      3 C          63.4130   89.7783   16.3317 C.3     1  UNL1        0.0035
      4 C          62.8786   89.0530   15.1325 C.3     1  UNL1        0.0206
      5 C          64.1279   91.1044   13.3349 C.ar    1  UNL1       -0.0077
      6 C          63.7469   91.1630   11.8854 C.ar    1  UNL1       -0.0030
      7 C          64.3716   92.1887   10.9866 C.ar    1  UNL1       -0.0002
      8 C          65.3773   93.1557   11.5375 C.ar    1  UNL1        0.0029
      9 C          65.7584   93.0970   12.9870 C.ar    1  UNL1       -0.0002
     10 C          65.1337   92.0713   13.8858 C.ar    1  UNL1       -0.0030
     11 C          66.0020   94.1814   10.6387 C.ar    1  UNL1        0.0343
     12 C          65.3492   95.5200   10.4609 C.ar    1  UNL1        0.0030
     13 C          65.9739   96.5457    9.5621 C.ar    1  UNL1        0.0002
     14 C          67.2514   96.2327    8.8411 C.ar    1  UNL1        0.0031
     15 C          67.9042   94.8939    9.0189 C.ar    1  UNL1        0.0372
     16 C          67.2795   93.8683    9.9177 C.ar    1  UNL1        0.1467
     17 O          67.9324   92.5295   10.0955 O.3     1  UNL1       -0.4045
     18 C          68.8690   92.0066    9.0469 C.3     1  UNL1        0.5753
     19 F          69.8055   91.4838    7.9984 F       1  UNL1       -0.1328
     20 F          67.8271   91.0208    8.6079 F       1  UNL1       -0.1328
     21 F          69.9108   92.9924    9.4859 F       1  UNL1       -0.1328
     22 N          62.9687   89.3534   13.0345 N.3     1  UNL1       -0.1487
     23 S          63.1887   87.8764   12.8916 S.O2    1  UNL1        0.0638
     24 O          64.2444   87.9307   13.9558 O.2     1  UNL1       -0.1528
     25 O          62.1330   87.8222   11.8273 O.2     1  UNL1       -0.1528
     26 C          63.4087   86.3996   12.7487 C.ar    1  UNL1        0.1224
     27 C          62.8096   85.6608   11.5888 C.ar    1  UNL1        0.0230
     28 C          63.0296   84.1839   11.4459 C.ar    1  UNL1        0.0385
     29 C          63.8488   83.4458   12.4628 C.ar    1  UNL1        0.1444
     30 C          64.4479   84.1845   13.6227 C.ar    1  UNL1        0.0385
     31 C          64.2279   85.6615   13.7656 C.ar    1  UNL1        0.0230
     32 O          64.0688   81.9690   12.3200 O.3     1  UNL1       -0.4236
     33 C          62.9215   81.0708   11.9633 C.3     1  UNL1        0.5087
     34 F          62.8997   80.3733   10.6355 F       1  UNL1       -0.1550
     35 F          61.7961   80.8701   12.9345 F       1  UNL1       -0.1550
     36 C          62.2143   90.1049   11.9781 C.3     1  UNL1        0.1374
     37 O          59.9562   89.5150   13.1198 O.co2   1  UNL1       -0.5477
     38 C          60.7160   90.0428   11.9390 C.2     1  UNL1        0.0683
     39 O          59.9776   90.5084   10.7192 O.co2   1  UNL1       -0.5477
@<TRIPOS>UNITY_ATOM_ATTR
37 1
charge -1
@<TRIPOS>BOND
     1    37    38   ar
     2    38    39   ar
     3    38    36    1
     4    36    22    1
     5    22     1    1
     6     1     5    1
     7     5     6   ar
     8     6     7   ar
     9     7     8   ar
    10     8    11    1
    11    11    12   ar
    12    12    13   ar
    13    13    14   ar
    14    14    15   ar
    15    15    16   ar
    16    16    17    1
    17    17    18    1
    18    18    19    1
    19    18    20    1
    20    18    21    1
    21     8     9   ar
    22     9    10   ar
    23     1     2    1
    24     2     3    1
    25     3     4    1
    26    22    23    1
    27    23    24    2
    28    23    25    2
    29    23    26    1
    30    26    27   ar
    31    27    28   ar
    32    28    29   ar
    33    29    32    1
    34    32    33    1
    35    33    34    1
    36    33    35    1
    37    29    30   ar
    38    30    31   ar
    39     4     1    1
    40    31    26   ar
    41    10     5   ar
    42    16    11   ar
@<TRIPOS>MOLECULE
*****
 39 42 0 0 0
SMALL
GASTEIGER

@<TRIPOS>ATOM
      1 C          61.2416   89.6199   11.6517 C.3     1  UNL1        0.0849
      2 C          60.1324   89.2663   10.7060 C.3     1  UNL1        0.0206
      3 C          59.6887   90.6990   10.6906 C.3     1  UNL1        0.0035
      4 C          60.7980   91.0527   11.6363 C.3     1  UNL1        0.0206
      5 C          61.6854   88.1871   11.6671 C.ar    1  UNL1       -0.0077
      6 C          60.8728   87.1426   10.9608 C.ar    1  UNL1       -0.0030
      7 C          61.3166   85.7099   10.9762 C.ar    1  UNL1       -0.0002
      8 C          62.5729   85.3216   11.6980 C.ar    1  UNL1        0.0029
      9 C          63.3854   86.3660   12.4043 C.ar    1  UNL1       -0.0002
     10 C          62.9417   87.7987   12.3888 C.ar    1  UNL1       -0.0030
     11 C          63.0166   83.8887   11.7134 C.ar    1  UNL1        0.0343
     12 C          63.5932   83.2688   10.4752 C.ar    1  UNL1        0.0030
     13 C          64.0369   81.8360   10.4906 C.ar    1  UNL1        0.0002
     14 C          63.9040   81.0231   11.7443 C.ar    1  UNL1        0.0031
     15 C          63.3274   81.6432   12.9825 C.ar    1  UNL1        0.0372
     16 C          62.8837   83.0759   12.9671 C.ar    1  UNL1        0.1467
     17 O          62.3071   83.6959   14.2053 O.3     1  UNL1       -0.4045
     18 C          63.2079   84.3779   15.1919 C.3     1  UNL1        0.5753
     19 F          64.1088   85.0599   16.1785 F       1  UNL1       -0.1328
     20 F          64.4046   83.9494   14.3954 F       1  UNL1       -0.1328
     21 F          62.0113   84.8064   15.9884 F       1  UNL1       -0.1328
     22 N          62.3509   89.9736   12.5974 N.3     1  UNL1       -0.1487
     23 S          63.4240   90.9308   12.1703 S.O2    1  UNL1        0.0638
     24 O          63.3034   91.6505   13.4808 O.2     1  UNL1       -0.1528
     25 O          63.5446   90.2110   10.8598 O.2     1  UNL1       -0.1528
     26 C          64.4970   91.8881   11.7434 C.ar    1  UNL1        0.1224
     27 C          65.5571   92.3094   12.7174 C.ar    1  UNL1        0.0230
     28 C          66.6301   93.2667   12.2904 C.ar    1  UNL1        0.0385
     29 C          66.6430   93.8026   10.8895 C.ar    1  UNL1        0.1444
     30 C          65.5830   93.3813    9.9155 C.ar    1  UNL1        0.0385
     31 C          64.5099   92.4240   10.3424 C.ar    1  UNL1        0.0230
     32 O          67.7160   94.7598   10.4625 O.3     1  UNL1       -0.4236
     33 C          67.6966   95.3400    9.0794 C.3     1  UNL1        0.5087
     34 F          67.6498   94.4325    7.8860 F       1  UNL1       -0.1550
     35 F          67.7238   96.8277    8.8897 F       1  UNL1       -0.1550
     36 C          62.3872   89.3700   13.9701 C.3     1  UNL1        0.1374
     37 O          63.2058   90.5218   16.1504 O.co2   1  UNL1       -0.5477
     38 C          63.4976   89.7223   14.9152 C.2     1  UNL1        0.0683
     39 O          64.8997   89.2752   14.6250 O.co2   1  UNL1       -0.5477
@<TRIPOS>UNITY_ATOM_ATTR
37 1
charge -1
@<TRIPOS>BOND
     1    37    38   ar
     2    38    39   ar
     3    38    36    1
     4    36    22    1
     5    22     1    1
     6     1     5    1
     7     5     6   ar
     8     6     7   ar
     9     7     8   ar
    10     8    11    1
    11    11    12   ar
    12    12    13   ar
    13    13    14   ar
    14    14    15   ar
    15    15    16   ar
    16    16    17    1
    17    17    18    1
    18    18    19    1
    19    18    20    1
    20    18    21    1
    21     8     9   ar
    22     9    10   ar
    23     1     2    1
    24     2     3    1
    25     3     4    1
    26    22    23    1
    27    23    24    2
    28    23    25    2
    29    23    26    1
    30    26    27   ar
    31    27    28   ar
    32    28    29   ar
    33    29    32    1
    34    32    33    1
    35    33    34    1
    36    33    35    1
    37    29    30   ar
    38    30    31   ar
    39     4     1    1
    40    31    26   ar
    41    10     5   ar
    42    16    11   ar
@<TRIPOS>MOLECULE
*****
 39 42 0 0 0
SMALL
GASTEIGER

@<TRIPOS>ATOM
      1 C          63.4459   87.5766   15.7791 C.3     1  UNL1        0.0849
      2 C          62.9832   88.4794   16.8840 C.3     1  UNL1        0.0206
      3 C          62.5158   87.2861   17.6634 C.3     1  UNL1        0.0035
      4 C          62.9785   86.3833   16.5585 C.3     1  UNL1        0.0206
      5 C          63.9134   88.7699   14.9996 C.ar    1  UNL1       -0.0077
      6 C          62.9158   89.6548   14.3128 C.ar    1  UNL1       -0.0030
      7 C          63.3833   90.8481   13.5334 C.ar    1  UNL1       -0.0002
      8 C          64.8483   91.1564   13.4408 C.ar    1  UNL1        0.0029
      9 C          65.8459   90.2716   14.1276 C.ar    1  UNL1       -0.0002
     10 C          65.3784   89.0783   14.9071 C.ar    1  UNL1       -0.0030
     11 C          65.3158   92.3498   12.6613 C.ar    1  UNL1        0.0343
     12 C          65.1338   92.3917   11.1730 C.ar    1  UNL1        0.0030
     13 C          65.6012   93.5850   10.3935 C.ar    1  UNL1        0.0002
     14 C          66.2507   94.7364   11.1024 C.ar    1  UNL1        0.0031
     15 C          66.4326   94.6945   12.5908 C.ar    1  UNL1        0.0372
     16 C          65.9652   93.5012   13.3702 C.ar    1  UNL1        0.1467
     17 O          66.1472   93.4592   14.8586 O.3     1  UNL1       -0.4045
     18 C          67.3702   92.8203   15.4469 C.3     1  UNL1        0.5753
     19 F          68.5931   92.1813   16.0352 F       1  UNL1       -0.1328
     20 F          68.0713   92.9469   14.1269 F       1  UNL1       -0.1328
     21 F          66.6690   92.6937   16.7669 F       1  UNL1       -0.1328
     22 N          63.9086   86.6737   14.6743 N.3     1  UNL1       -0.1487
     23 S          63.2635   86.7514   13.3223 S.O2    1  UNL1        0.0638
     24 O          62.2952   85.6781   13.7228 O.2     1  UNL1       -0.1528
     25 O          64.2318   87.8248   12.9219 O.2     1  UNL1       -0.1528
     26 C          62.6183   86.8291   11.9704 C.ar    1  UNL1        0.1224
     27 C          62.1001   85.5838   11.3140 C.ar    1  UNL1        0.0230
     28 C          61.4549   85.6614    9.9621 C.ar    1  UNL1        0.0385
     29 C          61.3278   86.9843    9.2666 C.ar    1  UNL1        0.1444
     30 C          61.8460   88.2295    9.9229 C.ar    1  UNL1        0.0385
     31 C          62.4912   88.1519   11.2749 C.ar    1  UNL1        0.0230
     32 O          60.6826   87.0619    7.9147 O.3     1  UNL1       -0.4236
     33 C          59.2626   87.5283    7.7870 C.3     1  UNL1        0.5087
     34 F          58.1371   86.6257    8.1973 F       1  UNL1       -0.1550
     35 F          58.9683   88.8972    7.2489 F       1  UNL1       -0.1550
     36 C          65.0165   85.6932   14.9214 C.3     1  UNL1        0.1374
     37 O          64.4346   83.2354   15.5304 O.co2   1  UNL1       -0.5477
     38 C          64.8524   84.2583   14.5160 C.2     1  UNL1        0.0683
     39 O          65.1061   83.8463   13.0961 O.co2   1  UNL1       -0.5477
@<TRIPOS>UNITY_ATOM_ATTR
37 1
charge -1
@<TRIPOS>BOND
     1    37    38   ar
     2    38    39   ar
     3    38    36    1
     4    36    22    1
     5    22     1    1
     6     1     5    1
     7     5     6   ar
     8     6     7   ar
     9     7     8   ar
    10     8    11    1
    11    11    12   ar
    12    12    13   ar
    13    13    14   ar
    14    14    15   ar
    15    15    16   ar
    16    16    17    1
    17    17    18    1
    18    18    19    1
    19    18    20    1
    20    18    21    1
    21     8     9   ar
    22     9    10   ar
    23     1     2    1
    24     2     3    1
    25     3     4    1
    26    22    23    1
    27    23    24    2
    28    23    25    2
    29    23    26    1
    30    26    27   ar
    31    27    28   ar
    32    28    29   ar
    33    29    32    1
    34    32    33    1
    35    33    34    1
    36    33    35    1
    37    29    30   ar
    38    30    31   ar
    39     4     1    1
    40    31    26   ar
    41    10     5   ar
    42    16    11   ar
