@<TRIPOS>MOLECULE
*****
 39 43 0 0 0
SMALL
GASTEIGER

@<TRIPOS>ATOM
      1 C          63.3460   90.1250   14.6312 C.ar    1  UNL1        0.1627
      2 N          64.6079   90.7961   15.0865 N.ar    1  UNL1       -0.2276
      3 C          65.4166   91.6084   14.1188 C.ar    1  UNL1        0.0874
      4 C          64.9634   91.7494   12.6959 C.ar    1  UNL1        0.0380
      5 C          63.7015   91.0782   12.2406 C.ar    1  UNL1        0.0428
      6 C          62.8928   90.2660   13.2082 C.ar    1  UNL1        0.1698
      7 C          65.7720   92.5616   11.7282 C.ar    1  UNL1        0.0777
      8 C          67.1094   92.0642   11.2656 C.ar    1  UNL1        0.1176
      9 N          67.9180   92.8764   10.2979 N.ar    1  UNL1       -0.2209
     10 C          67.3892   94.1861    9.7928 C.ar    1  UNL1        0.2006
     11 N          67.9562   95.1975    8.8411 N.ar    1  UNL1       -0.1272
     12 N          66.9693   96.3200    8.7155 N.ar    1  UNL1       -0.1493
     13 C          65.7923   96.0024    9.5896 C.ar    1  UNL1        0.0995
     14 C          64.5703   96.8541    9.7668 C.3     1  UNL1        0.0557
     15 C          66.0519   94.6835   10.2554 C.ar    1  UNL1        0.1101
     16 N          65.2433   93.8713   11.2230 N.ar    1  UNL1       -0.3484
     17 H          64.3655   94.1978   11.5267 H       1  UNL1        0.1661
     18 C          66.6784   92.2795   14.5740 C.ar    1  UNL1        0.0585
     19 C          66.8308   93.7323   14.9149 C.ar    1  UNL1        0.0453
     20 C          68.2560   93.9664   15.3199 C.ar    1  UNL1        0.1798
     21 O          68.9845   92.6583   15.2293 O.2     1  UNL1       -0.4473
     22 C          68.0094   91.6158   14.7683 C.ar    1  UNL1        0.1812
     23 N          62.5374   89.3128   15.5989 N.pl3   1  UNL1       -0.3157
     24 H          61.5842   89.1416   15.4217 H       1  UNL1        0.1483
     25 C          62.7684   87.4181   17.3615 C.3     1  UNL1        0.0230
     26 C          63.1810   88.7613   16.8364 C.3     1  UNL1        0.0883
     27 O          61.6310   89.5949   12.7530 O.3     1  UNL1       -0.4712
     28 C          60.9244   90.0817   11.5227 C.3     1  UNL1        0.2211
     29 C          60.6108   89.1257   10.4101 C.3     1  UNL1        0.0995
     30 N          60.5838   89.6097    8.9907 N.3     1  UNL1       -0.3190
     31 H          60.3555   88.8326    8.3707 H       1  UNL1        0.1189
     32 H          61.4989   89.9854    8.7421 H       1  UNL1        0.1189
     33 C          60.3241   87.6857   10.7171 C.3     1  UNL1        0.0456
     34 C          61.3168   86.6264   10.3396 C.ar    1  UNL1       -0.0207
     35 C          61.8237   85.6694   11.3776 C.ar    1  UNL1       -0.0042
     36 C          62.8163   84.6101   11.0000 C.ar    1  UNL1       -0.0003
     37 C          63.3020   84.5078    9.5845 C.ar    1  UNL1       -0.0000
     38 C          62.7951   85.4647    8.5466 C.ar    1  UNL1       -0.0003
     39 C          61.8025   86.5240    8.9241 C.ar    1  UNL1       -0.0042
@<TRIPOS>BOND
     1    25    26    1
     2    26    23    1
     3    23     1    1
     4     1     2   ar
     5     2     3   ar
     6     3    18    1
     7    18    19   ar
     8    19    20   ar
     9    20    21   ar
    10    21    22   ar
    11     3     4   ar
    12     4     7    1
    13     7     8   ar
    14     8     9   ar
    15     9    10   ar
    16    10    11   ar
    17    11    12   ar
    18    12    13   ar
    19    13    14    1
    20    13    15   ar
    21    15    16   ar
    22     4     5   ar
    23     5     6   ar
    24     6    27    1
    25    27    28    1
    26    28    29    1
    27    29    30    1
    28    29    33    1
    29    33    34    1
    30    34    35   ar
    31    35    36   ar
    32    36    37   ar
    33    37    38   ar
    34    38    39   ar
    35     6     1   ar
    36    39    34   ar
    37    22    18   ar
    38    16     7   ar
    39    15    10    1
    40    23    24    1
    41    16    17    1
    42    30    31    1
    43    30    32    1
@<TRIPOS>MOLECULE
*****
 39 43 0 0 0
SMALL
GASTEIGER

@<TRIPOS>ATOM
      1 C          64.1619   89.3182   14.5361 C.ar    1  UNL1        0.1627
      2 N          65.3236   90.1403   15.0100 N.ar    1  UNL1       -0.2276
      3 C          65.8663   91.2399   14.1461 C.ar    1  UNL1        0.0874
      4 C          65.2473   91.5175   12.8084 C.ar    1  UNL1        0.0380
      5 C          64.0856   90.6955   12.3344 C.ar    1  UNL1        0.0428
      6 C          63.5429   89.5958   13.1982 C.ar    1  UNL1        0.1698
      7 C          65.7900   92.6172   11.9444 C.ar    1  UNL1        0.0777
      8 C          65.3899   94.0398   12.2017 C.ar    1  UNL1        0.1176
      9 N          65.9326   95.1394   11.3378 N.ar    1  UNL1       -0.2209
     10 C          66.8754   94.8164   10.2167 C.ar    1  UNL1        0.2006
     11 N          67.5674   95.6825    9.2062 N.ar    1  UNL1       -0.1272
     12 N          68.3951   94.7952    8.3245 N.ar    1  UNL1       -0.1493
     13 C          68.2146   93.3807    8.7900 C.ar    1  UNL1        0.0995
     14 C          68.8601   92.1663    8.1912 C.3     1  UNL1        0.0557
     15 C          67.2754   93.3938    9.9594 C.ar    1  UNL1        0.1101
     16 N          66.7327   92.2942   10.8233 N.ar    1  UNL1       -0.3484
     17 H          66.9953   91.3605   10.6545 H       1  UNL1        0.1661
     18 C          67.0280   92.0620   14.6201 C.ar    1  UNL1        0.0585
     19 C          66.9941   93.0885   15.7133 C.ar    1  UNL1        0.0453
     20 C          68.3727   93.6628   15.8529 C.ar    1  UNL1        0.1798
     21 O          69.2588   92.9912   14.8460 O.2     1  UNL1       -0.4473
     22 C          68.4277   92.0019   14.0841 C.ar    1  UNL1        0.1812
     23 N          63.6192   88.2186   15.3999 N.pl3   1  UNL1       -0.3157
     24 H          63.5415   87.3046   15.0424 H       1  UNL1        0.1483
     25 C          62.8081   87.3882   17.7243 C.3     1  UNL1        0.0230
     26 C          63.1949   88.5115   16.8085 C.3     1  UNL1        0.0883
     27 O          62.3812   88.7738   12.7243 O.3     1  UNL1       -0.4712
     28 C          61.4650   89.3107   11.6649 C.3     1  UNL1        0.2211
     29 C          60.2883   88.4996   11.2094 C.3     1  UNL1        0.0995
     30 N          59.0181   88.5075   12.0072 N.3     1  UNL1       -0.3190
     31 H          58.3292   87.9059   11.5556 H       1  UNL1        0.1189
     32 H          58.6556   89.4595   12.0600 H       1  UNL1        0.1189
     33 C          60.3818   87.6806    9.9562 C.3     1  UNL1        0.0456
     34 C          61.3767   86.5619    9.8639 C.ar    1  UNL1       -0.0207
     35 C          61.6939   85.7382   11.0768 C.ar    1  UNL1       -0.0042
     36 C          62.6888   84.6195   10.9845 C.ar    1  UNL1       -0.0003
     37 C          63.3666   84.3243    9.6792 C.ar    1  UNL1       -0.0000
     38 C          63.0494   85.1480    8.4664 C.ar    1  UNL1       -0.0003
     39 C          62.0545   86.2667    8.5587 C.ar    1  UNL1       -0.0042
@<TRIPOS>BOND
     1    25    26    1
     2    26    23    1
     3    23     1    1
     4     1     2   ar
     5     2     3   ar
     6     3    18    1
     7    18    19   ar
     8    19    20   ar
     9    20    21   ar
    10    21    22   ar
    11     3     4   ar
    12     4     7    1
    13     7     8   ar
    14     8     9   ar
    15     9    10   ar
    16    10    11   ar
    17    11    12   ar
    18    12    13   ar
    19    13    14    1
    20    13    15   ar
    21    15    16   ar
    22     4     5   ar
    23     5     6   ar
    24     6    27    1
    25    27    28    1
    26    28    29    1
    27    29    30    1
    28    29    33    1
    29    33    34    1
    30    34    35   ar
    31    35    36   ar
    32    36    37   ar
    33    37    38   ar
    34    38    39   ar
    35     6     1   ar
    36    39    34   ar
    37    22    18   ar
    38    16     7   ar
    39    15    10    1
    40    23    24    1
    41    16    17    1
    42    30    31    1
    43    30    32    1
@<TRIPOS>MOLECULE
*****
 39 43 0 0 0
SMALL
GASTEIGER

@<TRIPOS>ATOM
      1 C          65.0051   92.5437   10.9987 C.ar    1  UNL1        0.1627
      2 N          65.7909   92.6898   12.2680 N.ar    1  UNL1       -0.2276
      3 C          65.4329   91.8679   13.4707 C.ar    1  UNL1        0.0874
      4 C          64.2890   90.8999   13.4040 C.ar    1  UNL1        0.0380
      5 C          63.5032   90.7538   12.1347 C.ar    1  UNL1        0.0428
      6 C          63.8611   91.5757   10.9321 C.ar    1  UNL1        0.1698
      7 C          63.9310   90.0779   14.6066 C.ar    1  UNL1        0.0777
      8 C          63.4380   90.7492   15.8541 C.ar    1  UNL1        0.1176
      9 N          63.0800   89.9272   17.0566 N.ar    1  UNL1       -0.2209
     10 C          63.2149   88.4339   17.0117 C.ar    1  UNL1        0.2006
     11 N          62.9401   87.3701   18.0329 N.ar    1  UNL1       -0.1272
     12 N          63.2632   86.0414   17.4164 N.ar    1  UNL1       -0.1493
     13 C          63.7377   86.2840   16.0143 C.ar    1  UNL1        0.0995
     14 C          64.1667   85.2325   15.0343 C.3     1  UNL1        0.0557
     15 C          63.7079   87.7627   15.7641 C.ar    1  UNL1        0.1101
     16 N          64.0659   88.5846   14.5616 N.ar    1  UNL1       -0.3484
     17 H          64.3894   88.1441   13.7428 H       1  UNL1        0.1661
     18 C          66.2188   92.0139   14.7399 C.ar    1  UNL1        0.0585
     19 C          67.6242   91.5410   14.9662 C.ar    1  UNL1        0.0453
     20 C          68.0112   91.8934   16.3719 C.ar    1  UNL1        0.1798
     21 O          66.8450   92.5841   17.0145 O.2     1  UNL1       -0.4473
     22 C          65.7372   92.6586   16.0058 C.ar    1  UNL1        0.1812
     23 N          65.3631   93.3657    9.7962 N.pl3   1  UNL1       -0.3157
     24 H          64.7027   93.5020    9.0788 H       1  UNL1        0.1483
     25 C          67.9007   93.1342    9.2895 C.3     1  UNL1        0.0230
     26 C          66.7271   93.9798    9.6866 C.3     1  UNL1        0.0883
     27 O          63.0753   91.4296    9.6628 O.3     1  UNL1       -0.4712
     28 C          62.4988   90.0968    9.2868 C.3     1  UNL1        0.2211
     29 C          61.0948   89.7481    9.6832 C.3     1  UNL1        0.0995
     30 N          60.2400   90.7614   10.3849 N.3     1  UNL1       -0.3190
     31 H          59.3233   90.3579   10.5777 H       1  UNL1        0.1189
     32 H          60.1314   91.5840    9.7916 H       1  UNL1        0.1189
     33 C          60.5457   88.3860    9.3779 C.3     1  UNL1        0.0456
     34 C          61.3258   87.1613    9.7540 C.ar    1  UNL1       -0.0207
     35 C          62.1157   86.4259    8.7122 C.ar    1  UNL1       -0.0042
     36 C          62.8958   85.2012    9.0883 C.ar    1  UNL1       -0.0003
     37 C          62.8860   84.7118   10.5062 C.ar    1  UNL1       -0.0000
     38 C          62.0961   85.4472   11.5480 C.ar    1  UNL1       -0.0003
     39 C          61.3160   86.6719   11.1719 C.ar    1  UNL1       -0.0042
@<TRIPOS>BOND
     1    25    26    1
     2    26    23    1
     3    23     1    1
     4     1     2   ar
     5     2     3   ar
     6     3    18    1
     7    18    19   ar
     8    19    20   ar
     9    20    21   ar
    10    21    22   ar
    11     3     4   ar
    12     4     7    1
    13     7     8   ar
    14     8     9   ar
    15     9    10   ar
    16    10    11   ar
    17    11    12   ar
    18    12    13   ar
    19    13    14    1
    20    13    15   ar
    21    15    16   ar
    22     4     5   ar
    23     5     6   ar
    24     6    27    1
    25    27    28    1
    26    28    29    1
    27    29    30    1
    28    29    33    1
    29    33    34    1
    30    34    35   ar
    31    35    36   ar
    32    36    37   ar
    33    37    38   ar
    34    38    39   ar
    35     6     1   ar
    36    39    34   ar
    37    22    18   ar
    38    16     7   ar
    39    15    10    1
    40    23    24    1
    41    16    17    1
    42    30    31    1
    43    30    32    1
@<TRIPOS>MOLECULE
*****
 39 43 0 0 0
SMALL
GASTEIGER

@<TRIPOS>ATOM
      1 C          61.6187   89.2298   10.4655 C.ar    1  UNL1        0.1627
      2 N          61.3935   88.3132    9.2997 N.ar    1  UNL1       -0.2276
      3 C          61.7648   86.8635    9.4028 C.ar    1  UNL1        0.0874
      4 C          62.3612   86.3305   10.6717 C.ar    1  UNL1        0.0380
      5 C          62.5865   87.2471   11.8375 C.ar    1  UNL1        0.0428
      6 C          62.2152   88.6967   11.7344 C.ar    1  UNL1        0.1698
      7 C          62.7325   84.8808   10.7748 C.ar    1  UNL1        0.0777
      8 C          63.6374   84.2636    9.7500 C.ar    1  UNL1        0.1176
      9 N          64.0086   82.8139    9.8532 N.ar    1  UNL1       -0.2209
     10 C          63.4750   81.9815   10.9811 C.ar    1  UNL1        0.2006
     11 N          63.6655   80.5376   11.3404 N.ar    1  UNL1       -0.1272
     12 N          62.8784   80.2625   12.5873 N.ar    1  UNL1       -0.1493
     13 C          62.2014   81.5363   12.9986 C.ar    1  UNL1        0.0995
     14 C          61.3119   81.7162   14.1929 C.3     1  UNL1        0.0557
     15 C          62.5702   82.5987   12.0059 C.ar    1  UNL1        0.1101
     16 N          62.1989   84.0483   11.9028 N.ar    1  UNL1       -0.3484
     17 H          61.6050   84.4534   12.5754 H       1  UNL1        0.1661
     18 C          61.5395   85.9469    8.2370 C.ar    1  UNL1        0.0585
     19 C          62.6042   85.2319    7.4591 C.ar    1  UNL1        0.0453
     20 C          61.9328   84.4274    6.3857 C.ar    1  UNL1        0.1798
     21 O          60.4531   84.6452    6.5003 O.2     1  UNL1       -0.4473
     22 C          60.2101   85.5843    7.6445 C.ar    1  UNL1        0.1812
     23 N          61.2474   90.6795   10.3624 N.pl3   1  UNL1       -0.3157
     24 H          61.8446   91.3086    9.8968 H       1  UNL1        0.1483
     25 C          59.1050   90.2337   11.7630 C.3     1  UNL1        0.0230
     26 C          59.9664   91.1705   10.9688 C.3     1  UNL1        0.0883
     27 O          62.4404   89.6134   12.9002 O.3     1  UNL1       -0.4712
     28 C          63.7043   90.4161   12.9899 C.3     1  UNL1        0.2211
     29 C          64.4423   90.5102   14.2924 C.3     1  UNL1        0.0995
     30 N          65.8251   91.0901   14.3308 N.3     1  UNL1       -0.3190
     31 H          66.1730   91.0765   15.2895 H       1  UNL1        0.1189
     32 H          65.8001   92.0517   13.9917 H       1  UNL1        0.1189
     33 C          63.7973   90.0244   15.5566 C.3     1  UNL1        0.0456
     34 C          63.7223   88.5540   15.8432 C.ar    1  UNL1       -0.0207
     35 C          64.3811   87.5748   14.9172 C.ar    1  UNL1       -0.0042
     36 C          64.3061   86.1044   15.2038 C.ar    1  UNL1       -0.0003
     37 C          63.5724   85.6131   16.4164 C.ar    1  UNL1       -0.0000
     38 C          62.9137   86.5922   17.3424 C.ar    1  UNL1       -0.0003
     39 C          62.9887   88.0626   17.0557 C.ar    1  UNL1       -0.0042
@<TRIPOS>BOND
     1    25    26    1
     2    26    23    1
     3    23     1    1
     4     1     2   ar
     5     2     3   ar
     6     3    18    1
     7    18    19   ar
     8    19    20   ar
     9    20    21   ar
    10    21    22   ar
    11     3     4   ar
    12     4     7    1
    13     7     8   ar
    14     8     9   ar
    15     9    10   ar
    16    10    11   ar
    17    11    12   ar
    18    12    13   ar
    19    13    14    1
    20    13    15   ar
    21    15    16   ar
    22     4     5   ar
    23     5     6   ar
    24     6    27    1
    25    27    28    1
    26    28    29    1
    27    29    30    1
    28    29    33    1
    29    33    34    1
    30    34    35   ar
    31    35    36   ar
    32    36    37   ar
    33    37    38   ar
    34    38    39   ar
    35     6     1   ar
    36    39    34   ar
    37    22    18   ar
    38    16     7   ar
    39    15    10    1
    40    23    24    1
    41    16    17    1
    42    30    31    1
    43    30    32    1
@<TRIPOS>MOLECULE
*****
 39 43 0 0 0
SMALL
GASTEIGER

@<TRIPOS>ATOM
      1 C          63.9344   83.2928   11.8523 C.ar    1  UNL1        0.1627
      2 N          63.2719   83.5956   10.5410 N.ar    1  UNL1       -0.2276
      3 C          62.6269   84.9313   10.3174 C.ar    1  UNL1        0.0874
      4 C          62.6444   85.9641   11.4050 C.ar    1  UNL1        0.0380
      5 C          63.3069   85.6613   12.7162 C.ar    1  UNL1        0.0428
      6 C          63.9519   84.3257   12.9399 C.ar    1  UNL1        0.1698
      7 C          61.9994   87.2998   11.1813 C.ar    1  UNL1        0.0777
      8 C          62.6555   88.3091   10.2865 C.ar    1  UNL1        0.1176
      9 N          62.0104   89.6447   10.0629 N.ar    1  UNL1       -0.2209
     10 C          60.7093   89.9710   10.7342 C.ar    1  UNL1        0.2006
     11 N          59.8434   91.1955   10.7034 N.ar    1  UNL1       -0.1272
     12 N          58.6522   90.9430   11.5793 N.ar    1  UNL1       -0.1493
     13 C          58.7819   89.5624   12.1513 C.ar    1  UNL1        0.0995
     14 C          57.8107   88.8990   13.0823 C.3     1  UNL1        0.0557
     15 C          60.0532   88.9617   11.6290 C.ar    1  UNL1        0.1101
     16 N          60.6983   87.6261   11.8526 N.ar    1  UNL1       -0.3484
     17 H          60.2676   86.9636   12.4399 H       1  UNL1        0.1661
     18 C          61.9643   85.2340    9.0061 C.ar    1  UNL1        0.0585
     19 C          60.6371   85.9087    8.8239 C.ar    1  UNL1        0.0453
     20 C          60.3652   86.0069    7.3520 C.ar    1  UNL1        0.1798
     21 O          61.5244   85.3930    6.6245 O.2     1  UNL1       -0.4473
     22 C          62.5127   84.9153    7.6468 C.ar    1  UNL1        0.1812
     23 N          64.5794   81.9572   12.0759 N.pl3   1  UNL1       -0.3157
     24 H          65.4906   81.7886   11.7432 H       1  UNL1        0.1483
     25 C          62.4023   81.0862   13.1946 C.3     1  UNL1        0.0230
     26 C          63.8363   80.8784   12.8065 C.3     1  UNL1        0.0883
     27 O          64.6145   84.0229   14.2511 O.3     1  UNL1       -0.4712
     28 C          63.7823   83.8162   15.4818 C.3     1  UNL1        0.2211
     29 C          62.9024   84.9212   15.9866 C.3     1  UNL1        0.0995
     30 N          61.4378   84.9211   15.6627 N.3     1  UNL1       -0.3190
     31 H          60.9966   85.7391   16.0828 H       1  UNL1        0.1189
     32 H          61.0075   84.0742   16.0343 H       1  UNL1        0.1189
     33 C          63.4872   86.0264   16.8153 C.3     1  UNL1        0.0456
     34 C          63.6147   87.4067   16.2421 C.ar    1  UNL1       -0.0207
     35 C          64.3055   87.6116   14.9264 C.ar    1  UNL1       -0.0042
     36 C          64.4330   88.9919   14.3532 C.ar    1  UNL1       -0.0003
     37 C          63.8696   90.1673   15.0957 C.ar    1  UNL1       -0.0000
     38 C          63.1789   89.9623   16.4113 C.ar    1  UNL1       -0.0003
     39 C          63.0514   88.5821   16.9845 C.ar    1  UNL1       -0.0042
@<TRIPOS>BOND
     1    25    26    1
     2    26    23    1
     3    23     1    1
     4     1     2   ar
     5     2     3   ar
     6     3    18    1
     7    18    19   ar
     8    19    20   ar
     9    20    21   ar
    10    21    22   ar
    11     3     4   ar
    12     4     7    1
    13     7     8   ar
    14     8     9   ar
    15     9    10   ar
    16    10    11   ar
    17    11    12   ar
    18    12    13   ar
    19    13    14    1
    20    13    15   ar
    21    15    16   ar
    22     4     5   ar
    23     5     6   ar
    24     6    27    1
    25    27    28    1
    26    28    29    1
    27    29    30    1
    28    29    33    1
    29    33    34    1
    30    34    35   ar
    31    35    36   ar
    32    36    37   ar
    33    37    38   ar
    34    38    39   ar
    35     6     1   ar
    36    39    34   ar
    37    22    18   ar
    38    16     7   ar
    39    15    10    1
    40    23    24    1
    41    16    17    1
    42    30    31    1
    43    30    32    1
@<TRIPOS>MOLECULE
*****
 39 43 0 0 0
SMALL
GASTEIGER

@<TRIPOS>ATOM
      1 C          62.2680   89.2229   10.6971 C.ar    1  UNL1        0.1627
      2 N          61.9016   88.3543    9.5304 N.ar    1  UNL1       -0.2276
      3 C          62.1023   86.8698    9.6083 C.ar    1  UNL1        0.0874
      4 C          62.6692   86.2540   10.8530 C.ar    1  UNL1        0.0380
      5 C          63.0356   87.1226   12.0197 C.ar    1  UNL1        0.0428
      6 C          62.8350   88.6070   11.9418 C.ar    1  UNL1        0.1698
      7 C          62.8699   84.7694   10.9310 C.ar    1  UNL1        0.0777
      8 C          63.6401   84.0593    9.8574 C.ar    1  UNL1        0.1176
      9 N          63.8407   82.5749    9.9354 N.ar    1  UNL1       -0.2209
     10 C          63.2711   81.8005   11.0870 C.ar    1  UNL1        0.2006
     11 N          63.3066   80.3407   11.4303 N.ar    1  UNL1       -0.1272
     12 N          62.5583   80.1487   12.7161 N.ar    1  UNL1       -0.1493
     13 C          62.0604   81.4898   13.1673 C.ar    1  UNL1        0.0995
     14 C          61.2621   81.7622   14.4077 C.3     1  UNL1        0.0557
     15 C          62.5009   82.5107   12.1605 C.ar    1  UNL1        0.1101
     16 N          62.3003   83.9951   12.0825 N.ar    1  UNL1       -0.3484
     17 H          61.7948   84.4612   12.7871 H       1  UNL1        0.1661
     18 C          61.7359   86.0012    8.4416 C.ar    1  UNL1        0.0585
     19 C          62.6937   85.2383    7.5752 C.ar    1  UNL1        0.0453
     20 C          61.8971   84.5086    6.5345 C.ar    1  UNL1        0.1798
     21 O          60.4470   84.8204    6.7577 O.2     1  UNL1       -0.4473
     22 C          60.3473   85.7429    7.9364 C.ar    1  UNL1        0.1812
     23 N          62.0674   90.7074   10.6192 N.pl3   1  UNL1       -0.3157
     24 H          61.2407   91.1115   10.9694 H       1  UNL1        0.1483
     25 C          64.3475   91.9397   10.7993 C.3     1  UNL1        0.0230
     26 C          63.1262   91.5762   10.0078 C.3     1  UNL1        0.0883
     27 O          63.2014   89.4756   13.1086 O.3     1  UNL1       -0.4712
     28 C          63.7507   88.8579   14.3602 C.3     1  UNL1        0.2211
     29 C          63.6722   89.6015   15.6605 C.3     1  UNL1        0.0995
     30 N          63.3225   88.8704   16.9227 N.3     1  UNL1       -0.3190
     31 H          63.3146   89.5259   17.7042 H       1  UNL1        0.1189
     32 H          64.0152   88.1422   17.0968 H       1  UNL1        0.1189
     33 C          63.9434   91.0764   15.6986 C.3     1  UNL1        0.0456
     34 C          65.3181   91.5942   15.3953 C.ar    1  UNL1       -0.0207
     35 C          66.0508   92.4175   16.4129 C.ar    1  UNL1       -0.0042
     36 C          67.4255   92.9353   16.1096 C.ar    1  UNL1       -0.0003
     37 C          68.0675   92.6299   14.7886 C.ar    1  UNL1       -0.0000
     38 C          67.3347   91.8068   13.7711 C.ar    1  UNL1       -0.0003
     39 C          65.9600   91.2889   14.0745 C.ar    1  UNL1       -0.0042
@<TRIPOS>BOND
     1    25    26    1
     2    26    23    1
     3    23     1    1
     4     1     2   ar
     5     2     3   ar
     6     3    18    1
     7    18    19   ar
     8    19    20   ar
     9    20    21   ar
    10    21    22   ar
    11     3     4   ar
    12     4     7    1
    13     7     8   ar
    14     8     9   ar
    15     9    10   ar
    16    10    11   ar
    17    11    12   ar
    18    12    13   ar
    19    13    14    1
    20    13    15   ar
    21    15    16   ar
    22     4     5   ar
    23     5     6   ar
    24     6    27    1
    25    27    28    1
    26    28    29    1
    27    29    30    1
    28    29    33    1
    29    33    34    1
    30    34    35   ar
    31    35    36   ar
    32    36    37   ar
    33    37    38   ar
    34    38    39   ar
    35     6     1   ar
    36    39    34   ar
    37    22    18   ar
    38    16     7   ar
    39    15    10    1
    40    23    24    1
    41    16    17    1
    42    30    31    1
    43    30    32    1
