@<TRIPOS>MOLECULE
*****
 42 46 0 0 0
SMALL
GASTEIGER

@<TRIPOS>ATOM
      1 C          59.1489   91.5902    4.3931 C.ar    1  UNL1        0.0702
      2 C          58.1630   90.8876    5.2787 C.ar    1  UNL1        0.0191
      3 C          58.6491   90.0125    6.3958 C.ar    1  UNL1        0.0356
      4 C          60.1210   89.8400    6.6272 C.ar    1  UNL1        0.1319
      5 N          61.1069   90.5426    5.7417 N.ar    1  UNL1       -0.2279
      6 C          60.6208   91.4177    4.6246 C.ar    1  UNL1        0.1149
      7 N          60.6071   88.9648    7.7444 N.pl3   1  UNL1       -0.2897
      8 C          60.5622   87.4723    7.6018 C.3     1  UNL1        0.1137
      9 C          61.0482   86.5972    8.7189 C.3     1  UNL1        0.1164
     10 N          61.5792   87.2146    9.9786 N.am    1  UNL1       -0.2605
     11 C          62.0653   86.3395   11.0957 C.2     1  UNL1        0.3078
     12 O          62.5963   86.9570   12.3554 O.2     1  UNL1       -0.2522
     13 N          62.0203   84.8471   10.9531 N.am    1  UNL1       -0.2674
     14 C          61.6242   88.7072   10.1212 C.3     1  UNL1        0.1164
     15 C          61.1381   89.5823    9.0041 C.3     1  UNL1        0.1137
     16 H          61.6718   84.4418   10.1263 H       1  UNL1        0.1564
     17 C          62.5064   83.9719   12.0703 C.ar    1  UNL1        0.0622
     18 C          62.0592   84.2346   13.4777 C.ar    1  UNL1        0.0156
     19 C          62.5453   83.3595   14.5948 C.ar    1  UNL1        0.0013
     20 C          63.4785   82.2216   14.3043 C.ar    1  UNL1        0.0009
     21 C          63.9257   81.9589   12.8969 C.ar    1  UNL1        0.0126
     22 C          63.4396   82.8340   11.7799 C.ar    1  UNL1        0.0711
     23 CL         63.8868   82.5713   10.3723 Cl      1  UNL1       -0.0810
     24 O          61.0563   92.5060    2.2664 O.2     1  UNL1       -0.2664
     25 C          59.6165   92.9232    2.2126 C.2     1  UNL1        0.2859
     26 N          58.6628   92.4654    3.2760 N.am    1  UNL1       -0.2766
     27 H          57.7178   92.7392    3.2407 H       1  UNL1        0.1553
     28 C          59.1305   93.7984    1.0955 C.ar    1  UNL1        0.2233
     29 O          58.1338   93.4124    0.0430 O.2     1  UNL1       -0.4191
     30 C          57.9431   94.5886   -0.8682 C.ar    1  UNL1        0.2925
     31 N          58.8219   95.7014   -0.3789 N.ar    1  UNL1       -0.1904
     32 C          59.5557   95.2130    0.8348 C.ar    1  UNL1        0.1959
     33 N          57.0333   94.6425   -2.0596 N.pl3   1  UNL1       -0.2636
     34 C          57.2774   93.7382   -3.2312 C.3     1  UNL1        0.0951
     35 C          56.3676   93.7921   -4.4226 C.3     1  UNL1        0.0216
     36 C          55.2137   94.7503   -4.4423 C.3     1  UNL1        0.0035
     37 C          54.9697   95.6547   -3.2707 C.3     1  UNL1        0.0216
     38 C          55.8794   95.6008   -2.0794 C.3     1  UNL1        0.0951
     39 C          60.5417   96.0008    1.6454 C.3     1  UNL1        0.4381
     40 F          61.5278   96.7886    2.4559 F       1  UNL1       -0.1643
     41 F          61.6682   95.2257    1.0285 F       1  UNL1       -0.1643
     42 F          59.4154   96.7759    2.2623 F       1  UNL1       -0.1643
@<TRIPOS>BOND
     1    24    25    2
     2    25    26   am
     3    26     1    1
     4     1     2   ar
     5     2     3   ar
     6     3     4   ar
     7     4     7    1
     8     7     8    1
     9     8     9    1
    10     9    10    1
    11    10    11   am
    12    11    12    2
    13    11    13   am
    14    13    17    1
    15    17    18   ar
    16    18    19   ar
    17    19    20   ar
    18    20    21   ar
    19    21    22   ar
    20    22    23    1
    21    10    14    1
    22    14    15    1
    23     4     5   ar
    24     5     6   ar
    25    25    28    1
    26    28    29   ar
    27    29    30   ar
    28    30    33    1
    29    33    34    1
    30    34    35    1
    31    35    36    1
    32    36    37    1
    33    37    38    1
    34    30    31   ar
    35    31    32   ar
    36    32    39    1
    37    39    40    1
    38    39    41    1
    39    39    42    1
    40     6     1   ar
    41    32    28   ar
    42    15     7    1
    43    38    33    1
    44    22    17   ar
    45    26    27    1
    46    13    16    1
@<TRIPOS>MOLECULE
*****
 42 46 0 0 0
SMALL
GASTEIGER

@<TRIPOS>ATOM
      1 C          59.1124   91.6434    4.3973 C.ar    1  UNL1        0.0702
      2 C          58.1017   90.9315    5.2467 C.ar    1  UNL1        0.0191
      3 C          58.5561   90.0280    6.3545 C.ar    1  UNL1        0.0356
      4 C          60.0212   89.8366    6.6130 C.ar    1  UNL1        0.1319
      5 N          61.0319   90.5485    5.7636 N.ar    1  UNL1       -0.2279
      6 C          60.5775   91.4519    4.6557 C.ar    1  UNL1        0.1149
      7 N          60.4755   88.9331    7.7209 N.pl3   1  UNL1       -0.2897
      8 C          61.2798   89.4879    8.8589 C.3     1  UNL1        0.1137
      9 C          61.7341   88.5844    9.9668 C.3     1  UNL1        0.1164
     10 N          61.3842   87.1261    9.9366 N.am    1  UNL1       -0.2605
     11 C          61.8385   86.2227   11.0444 C.2     1  UNL1        0.3078
     12 O          61.4885   84.7644   11.0141 O.2     1  UNL1       -0.2522
     13 N          62.6428   86.7775   12.1825 N.am    1  UNL1       -0.2674
     14 C          60.5799   86.5713    8.7984 C.3     1  UNL1        0.1164
     15 C          60.1256   87.4748    7.6906 C.3     1  UNL1        0.1137
     16 H          62.8724   87.7346   12.2023 H       1  UNL1        0.1564
     17 C          63.0971   85.8740   13.2904 C.ar    1  UNL1        0.0622
     18 C          62.6806   84.4331   13.3016 C.ar    1  UNL1        0.0156
     19 C          63.1350   83.5297   14.4094 C.ar    1  UNL1        0.0013
     20 C          64.0058   84.0672   15.5061 C.ar    1  UNL1        0.0009
     21 C          64.4223   85.5082   15.4949 C.ar    1  UNL1        0.0126
     22 C          63.9680   86.4116   14.3870 C.ar    1  UNL1        0.0711
     23 CL         64.3845   87.8526   14.3758 Cl      1  UNL1       -0.0810
     24 O          61.0469   92.4973    2.2692 O.2     1  UNL1       -0.2664
     25 C          59.6253   92.9738    2.2254 C.2     1  UNL1        0.2859
     26 N          58.6581   92.5469    3.2894 N.am    1  UNL1       -0.2766
     27 H          57.7250   92.8597    3.2606 H       1  UNL1        0.1553
     28 C          59.1710   93.8773    1.1175 C.ar    1  UNL1        0.2233
     29 O          58.1358   93.5508    0.0822 O.2     1  UNL1       -0.4191
     30 C          57.9970   94.7376   -0.8248 C.ar    1  UNL1        0.2925
     31 N          58.9465   95.7974   -0.3499 N.ar    1  UNL1       -0.1904
     32 C          59.6720   95.2657    0.8505 C.ar    1  UNL1        0.1959
     33 N          57.0714   94.8456   -2.0002 N.pl3   1  UNL1       -0.2636
     34 C          57.5266   94.3963   -3.3570 C.3     1  UNL1        0.0951
     35 C          56.6010   94.5043   -4.5324 C.3     1  UNL1        0.0216
     36 C          55.2202   95.0615   -4.3509 C.3     1  UNL1        0.0035
     37 C          54.7650   95.5107   -2.9941 C.3     1  UNL1        0.0216
     38 C          55.6906   95.4028   -1.8187 C.3     1  UNL1        0.0951
     39 C          60.7153   95.9943    1.6444 C.3     1  UNL1        0.4381
     40 F          61.7587   96.7230    2.4384 F       1  UNL1       -0.1643
     41 F          61.7902   95.3712    0.8039 F       1  UNL1       -0.1643
     42 F          59.6406   96.6175    2.4850 F       1  UNL1       -0.1643
@<TRIPOS>BOND
     1    24    25    2
     2    25    26   am
     3    26     1    1
     4     1     2   ar
     5     2     3   ar
     6     3     4   ar
     7     4     7    1
     8     7     8    1
     9     8     9    1
    10     9    10    1
    11    10    11   am
    12    11    12    2
    13    11    13   am
    14    13    17    1
    15    17    18   ar
    16    18    19   ar
    17    19    20   ar
    18    20    21   ar
    19    21    22   ar
    20    22    23    1
    21    10    14    1
    22    14    15    1
    23     4     5   ar
    24     5     6   ar
    25    25    28    1
    26    28    29   ar
    27    29    30   ar
    28    30    33    1
    29    33    34    1
    30    34    35    1
    31    35    36    1
    32    36    37    1
    33    37    38    1
    34    30    31   ar
    35    31    32   ar
    36    32    39    1
    37    39    40    1
    38    39    41    1
    39    39    42    1
    40     6     1   ar
    41    32    28   ar
    42    15     7    1
    43    38    33    1
    44    22    17   ar
    45    26    27    1
    46    13    16    1
@<TRIPOS>MOLECULE
*****
 42 46 0 0 0
SMALL
GASTEIGER

@<TRIPOS>ATOM
      1 C          60.6348   91.3596    4.9461 C.ar    1  UNL1        0.0702
      2 C          61.6120   91.6315    3.8411 C.ar    1  UNL1        0.0191
      3 C          61.1506   92.2980    2.5791 C.ar    1  UNL1        0.0356
      4 C          59.7120   92.6927    2.4220 C.ar    1  UNL1        0.1319
      5 N          58.7348   92.4209    3.5270 N.ar    1  UNL1       -0.2279
      6 C          59.1962   91.7543    4.7891 C.ar    1  UNL1        0.1149
      7 N          59.2507   93.3593    1.1599 N.pl3   1  UNL1       -0.2897
      8 C          58.4992   92.5723    0.1275 C.3     1  UNL1        0.1137
      9 C          58.0379   93.2389   -1.1346 C.3     1  UNL1        0.1164
     10 N          58.3281   94.6925   -1.3643 N.am    1  UNL1       -0.2605
     11 C          57.8668   95.3591   -2.6263 C.2     1  UNL1        0.3078
     12 O          58.1570   96.8127   -2.8560 O.2     1  UNL1       -0.2522
     13 N          57.1153   94.5720   -3.6587 N.am    1  UNL1       -0.2674
     14 C          59.0796   95.4795   -0.3318 C.3     1  UNL1        0.1164
     15 C          59.5409   94.8129    0.9302 C.3     1  UNL1        0.1137
     16 H          56.9249   93.6180   -3.5079 H       1  UNL1        0.1564
     17 C          56.6540   95.2386   -4.9208 C.ar    1  UNL1        0.0622
     18 C          57.5518   95.2736   -6.1219 C.ar    1  UNL1        0.0156
     19 C          57.0905   95.9401   -7.3840 C.ar    1  UNL1        0.0013
     20 C          55.7313   96.5717   -7.4449 C.ar    1  UNL1        0.0009
     21 C          54.8335   96.5368   -6.2438 C.ar    1  UNL1        0.0126
     22 C          55.2948   95.8702   -4.9818 C.ar    1  UNL1        0.0711
     23 CL         54.3970   95.8353   -3.7806 Cl      1  UNL1       -0.0810
     24 O          58.7694   89.5655    6.4632 O.2     1  UNL1       -0.2664
     25 C          60.1634   89.7960    6.9668 C.2     1  UNL1        0.2859
     26 N          61.0961   90.6931    6.2083 N.am    1  UNL1       -0.2766
     27 H          62.0110   90.8443    6.5388 H       1  UNL1        0.1553
     28 C          60.6248   89.1294    8.2289 C.ar    1  UNL1        0.2233
     29 O          61.4537   89.7615    9.3075 O.2     1  UNL1       -0.4191
     30 C          61.6794   88.7365   10.3793 C.ar    1  UNL1        0.2925
     31 N          60.9900   87.4710    9.9629 N.ar    1  UNL1       -0.1904
     32 C          60.3382   87.7139    8.6340 C.ar    1  UNL1        0.1959
     33 N          62.4579   88.9411   11.6450 N.pl3   1  UNL1       -0.2636
     34 C          63.1055   87.7711   12.3246 C.3     1  UNL1        0.0951
     35 C          63.8839   87.9757   13.5904 C.3     1  UNL1        0.0216
     36 C          64.0148   89.3502   14.1765 C.3     1  UNL1        0.0035
     37 C          63.3672   90.5202   13.4969 C.3     1  UNL1        0.0216
     38 C          62.5887   90.3156   12.2311 C.3     1  UNL1        0.0951
     39 C          59.5399   86.7164    7.8480 C.3     1  UNL1        0.4381
     40 F          58.7416   85.7189    7.0621 F       1  UNL1       -0.1643
     41 F          58.2714   87.2979    8.3983 F       1  UNL1       -0.1643
     42 F          60.8084   86.1348    7.2977 F       1  UNL1       -0.1643
@<TRIPOS>BOND
     1    24    25    2
     2    25    26   am
     3    26     1    1
     4     1     2   ar
     5     2     3   ar
     6     3     4   ar
     7     4     7    1
     8     7     8    1
     9     8     9    1
    10     9    10    1
    11    10    11   am
    12    11    12    2
    13    11    13   am
    14    13    17    1
    15    17    18   ar
    16    18    19   ar
    17    19    20   ar
    18    20    21   ar
    19    21    22   ar
    20    22    23    1
    21    10    14    1
    22    14    15    1
    23     4     5   ar
    24     5     6   ar
    25    25    28    1
    26    28    29   ar
    27    29    30   ar
    28    30    33    1
    29    33    34    1
    30    34    35    1
    31    35    36    1
    32    36    37    1
    33    37    38    1
    34    30    31   ar
    35    31    32   ar
    36    32    39    1
    37    39    40    1
    38    39    41    1
    39    39    42    1
    40     6     1   ar
    41    32    28   ar
    42    15     7    1
    43    38    33    1
    44    22    17   ar
    45    26    27    1
    46    13    16    1
@<TRIPOS>MOLECULE
*****
 42 46 0 0 0
SMALL
GASTEIGER

@<TRIPOS>ATOM
      1 C          60.6593   90.8809    5.5619 C.ar    1  UNL1        0.0702
      2 C          59.2214   91.2718    5.3896 C.ar    1  UNL1        0.0191
      3 C          58.7874   92.0101    4.1582 C.ar    1  UNL1        0.0356
      4 C          59.7912   92.3576    3.0991 C.ar    1  UNL1        0.1319
      5 N          61.2290   91.9667    3.2714 N.ar    1  UNL1       -0.2279
      6 C          61.6631   91.2283    4.5028 C.ar    1  UNL1        0.1149
      7 N          59.3570   93.0960    1.8677 N.pl3   1  UNL1       -0.2897
      8 C          58.4987   92.4110    0.8459 C.3     1  UNL1        0.1137
      9 C          58.0646   93.1494   -0.3855 C.3     1  UNL1        0.1164
     10 N          58.4888   94.5728   -0.5951 N.am    1  UNL1       -0.2605
     11 C          58.0547   95.3112   -1.8265 C.2     1  UNL1        0.3078
     12 O          58.4790   96.7346   -2.0361 O.2     1  UNL1       -0.2522
     13 N          57.1964   94.6262   -2.8482 N.am    1  UNL1       -0.2674
     14 C          59.3472   95.2578    0.4267 C.3     1  UNL1        0.1164
     15 C          59.7813   94.5194    1.6580 C.3     1  UNL1        0.1137
     16 H          56.9180   93.6919   -2.7106 H       1  UNL1        0.1564
     17 C          56.7623   95.3646   -4.0797 C.ar    1  UNL1        0.0622
     18 C          57.6869   95.4700   -5.2560 C.ar    1  UNL1        0.0156
     19 C          57.2528   96.2083   -6.4874 C.ar    1  UNL1        0.0013
     20 C          55.8940   96.8413   -6.5424 C.ar    1  UNL1        0.0009
     21 C          54.9693   96.7359   -5.3660 C.ar    1  UNL1        0.0126
     22 C          55.4035   95.9975   -4.1347 C.ar    1  UNL1        0.0711
     23 CL         54.4788   95.8921   -2.9582 Cl      1  UNL1       -0.0810
     24 O          58.9259   88.7131    6.7004 O.2     1  UNL1       -0.2664
     25 C          60.2267   89.0586    7.3625 C.2     1  UNL1        0.2859
     26 N          61.0934   90.1425    6.7933 N.am    1  UNL1       -0.2766
     27 H          61.9472   90.3693    7.2279 H       1  UNL1        0.1553
     28 C          60.6609   88.3202    8.5940 C.ar    1  UNL1        0.2233
     29 O          61.4017   87.0163    8.6248 O.2     1  UNL1       -0.4191
     30 C          61.6291   86.6462   10.0607 C.ar    1  UNL1        0.2925
     31 N          61.0288   87.7216   10.9171 N.ar    1  UNL1       -0.1904
     32 C          60.4304   88.7561   10.0106 C.ar    1  UNL1        0.1959
     33 N          62.3331   85.4169   10.5535 N.pl3   1  UNL1       -0.2636
     34 C          62.2772   85.0526   12.0075 C.3     1  UNL1        0.0951
     35 C          62.9813   83.8233   12.5004 C.3     1  UNL1        0.0216
     36 C          63.7412   82.9581   11.5391 C.3     1  UNL1        0.0035
     37 C          63.7970   83.3223   10.0851 C.3     1  UNL1        0.0216
     38 C          63.0930   84.5517    9.5923 C.3     1  UNL1        0.0951
     39 C          59.7254   90.0069   10.4445 C.3     1  UNL1        0.4381
     40 F          59.0204   91.2578   10.8784 F       1  UNL1       -0.1643
     41 F          60.7527   90.8339    9.7298 F       1  UNL1       -0.1643
     42 F          58.6981   89.1800   11.1593 F       1  UNL1       -0.1643
@<TRIPOS>BOND
     1    24    25    2
     2    25    26   am
     3    26     1    1
     4     1     2   ar
     5     2     3   ar
     6     3     4   ar
     7     4     7    1
     8     7     8    1
     9     8     9    1
    10     9    10    1
    11    10    11   am
    12    11    12    2
    13    11    13   am
    14    13    17    1
    15    17    18   ar
    16    18    19   ar
    17    19    20   ar
    18    20    21   ar
    19    21    22   ar
    20    22    23    1
    21    10    14    1
    22    14    15    1
    23     4     5   ar
    24     5     6   ar
    25    25    28    1
    26    28    29   ar
    27    29    30   ar
    28    30    33    1
    29    33    34    1
    30    34    35    1
    31    35    36    1
    32    36    37    1
    33    37    38    1
    34    30    31   ar
    35    31    32   ar
    36    32    39    1
    37    39    40    1
    38    39    41    1
    39    39    42    1
    40     6     1   ar
    41    32    28   ar
    42    15     7    1
    43    38    33    1
    44    22    17   ar
    45    26    27    1
    46    13    16    1
