@<TRIPOS>MOLECULE
*****
 41 44 0 0 0
SMALL
GASTEIGER

@<TRIPOS>ATOM
      1 C          63.0147   89.3348   11.6271 C.ar    1  UNL1        0.0736
      2 C          63.4647   88.3946   12.7057 C.ar    1  UNL1        0.0847
      3 N          64.4257   88.8645   13.7573 N.ar    1  UNL1       -0.2755
      4 C          64.9365   90.2745   13.7303 C.ar    1  UNL1        0.3341
      5 O          65.8974   90.7444   14.7819 O.2     1  UNL1       -0.2462
      6 N          64.4865   91.2147   12.6516 N.ar    1  UNL1       -0.2470
      7 C          63.5256   90.7448   11.6000 C.ar    1  UNL1        0.2657
      8 O          63.0755   91.6851   10.5213 O.2     1  UNL1       -0.2668
      9 C          60.1319   87.9252    8.4723 C.ar    1  UNL1       -0.0066
     10 C          60.0009   89.3052    9.0452 C.ar    1  UNL1       -0.0029
     11 C          60.9618   89.7751   10.0968 C.ar    1  UNL1       -0.0001
     12 C          62.0538   88.8649   10.5755 C.ar    1  UNL1        0.0060
     13 C          62.1848   87.4849   10.0025 C.ar    1  UNL1       -0.0001
     14 C          61.2239   87.0150    8.9509 C.ar    1  UNL1       -0.0029
     15 N          58.2056   86.3491    7.7274 N.3     1  UNL1       -0.3175
     16 C          59.1710   87.4553    7.4207 C.3     1  UNL1        0.0922
     17 H          57.6327   86.1600    6.9049 H       1  UNL1        0.1192
     18 H          57.6049   86.6274    8.5034 H       1  UNL1        0.1192
     19 C          64.8757   87.9243   14.8360 C.3     1  UNL1        0.1394
     20 C          63.8620   87.1724   15.6465 C.ar    1  UNL1        0.0319
     21 C          63.1524   87.8535   16.7790 C.ar    1  UNL1        0.1379
     22 F          63.4565   89.2866   17.1009 F       1  UNL1       -0.2044
     23 C          62.1386   87.1016   17.5895 C.ar    1  UNL1        0.0294
     24 C          61.8345   85.6685   17.2675 C.ar    1  UNL1        0.0022
     25 C          62.5441   84.9873   16.1351 C.ar    1  UNL1        0.0037
     26 C          63.5578   85.7392   15.3246 C.ar    1  UNL1        0.0714
     27 C          64.2674   85.0580   14.1921 C.3     1  UNL1        0.4184
     28 F          64.9770   84.3768   13.0597 F       1  UNL1       -0.1659
     29 F          63.0348   85.1804   13.3461 F       1  UNL1       -0.1659
     30 F          65.5000   84.9355   15.0381 F       1  UNL1       -0.1659
     31 C          64.9974   92.6248   12.6245 C.3     1  UNL1        0.1334
     32 C          66.4596   92.8889   12.4194 C.3     1  UNL1        0.0968
     33 N          67.4000   92.8494   13.5874 N.3     1  UNL1       -0.3172
     34 H          68.3475   93.0506   13.2679 H       1  UNL1        0.1192
     35 H          67.3743   91.9229   14.0133 H       1  UNL1        0.1192
     36 C          66.9815   93.1927   11.0463 C.ar    1  UNL1       -0.0063
     37 C          67.9022   92.2255   10.3630 C.ar    1  UNL1       -0.0029
     38 C          68.4241   92.5291    8.9900 C.ar    1  UNL1       -0.0003
     39 C          68.0253   93.8000    8.3002 C.ar    1  UNL1       -0.0000
     40 C          67.1046   94.7672    8.9834 C.ar    1  UNL1       -0.0003
     41 C          66.5827   94.4635   10.3565 C.ar    1  UNL1       -0.0029
@<TRIPOS>BOND
     1    15    16    1
     2    16     9    1
     3     9    10   ar
     4    10    11   ar
     5    11    12   ar
     6    12     1    1
     7     1     2   ar
     8     2     3   ar
     9     3    19    1
    10    19    20    1
    11    20    21   ar
    12    21    22    1
    13    21    23   ar
    14    23    24   ar
    15    24    25   ar
    16    25    26   ar
    17    26    27    1
    18    27    28    1
    19    27    29    1
    20    27    30    1
    21     3     4   ar
    22     4     5    2
    23     4     6   ar
    24     6    31    1
    25    31    32    1
    26    32    33    1
    27    32    36    1
    28    36    37   ar
    29    37    38   ar
    30    38    39   ar
    31    39    40   ar
    32    40    41   ar
    33     6     7   ar
    34     7     8    2
    35    12    13   ar
    36    13    14   ar
    37    14     9   ar
    38     7     1   ar
    39    26    20   ar
    40    41    36   ar
    41    15    17    1
    42    15    18    1
    43    33    34    1
    44    33    35    1
@<TRIPOS>MOLECULE
*****
 41 44 0 0 0
SMALL
GASTEIGER

@<TRIPOS>ATOM
      1 C          62.6384   87.2245   11.7937 C.ar    1  UNL1        0.0736
      2 C          63.1466   85.8199   11.9305 C.ar    1  UNL1        0.0847
      3 N          64.0502   85.4570   13.0715 N.ar    1  UNL1       -0.2755
      4 C          64.4455   86.4987   14.0757 C.ar    1  UNL1        0.3341
      5 O          65.3491   86.1359   15.2167 O.2     1  UNL1       -0.2462
      6 N          63.9373   87.9033   13.9389 N.ar    1  UNL1       -0.2470
      7 C          63.0337   88.2662   12.7979 C.ar    1  UNL1        0.2657
      8 O          62.5255   89.6709   12.6612 O.2     1  UNL1       -0.2668
      9 C          59.9276   88.3132    8.3708 C.ar    1  UNL1       -0.0066
     10 C          60.6974   89.3827    9.0873 C.ar    1  UNL1       -0.0029
     11 C          61.6010   89.0198   10.2282 C.ar    1  UNL1       -0.0001
     12 C          61.7348   87.5874   10.6527 C.ar    1  UNL1        0.0060
     13 C          60.9650   86.5179    9.9362 C.ar    1  UNL1       -0.0001
     14 C          60.0614   86.8807    8.7952 C.ar    1  UNL1       -0.0029
     15 N          59.3860   89.8108    6.3180 N.3     1  UNL1       -0.3175
     16 C          59.0240   88.6760    7.2298 C.3     1  UNL1        0.0922
     17 H          58.6651   89.9166    5.6042 H       1  UNL1        0.1192
     18 H          60.2815   89.6150    5.8706 H       1  UNL1        0.1192
     19 C          64.5584   84.0523   13.2082 C.3     1  UNL1        0.1394
     20 C          63.5914   82.9070   13.2645 C.ar    1  UNL1        0.0319
     21 C          63.5911   81.8717   12.1792 C.ar    1  UNL1        0.1379
     22 F          64.5578   81.9816   11.0375 F       1  UNL1       -0.2044
     23 C          62.6241   80.7263   12.2355 C.ar    1  UNL1        0.0294
     24 C          61.6574   80.6164   13.3772 C.ar    1  UNL1        0.0022
     25 C          61.6577   81.6518   14.4625 C.ar    1  UNL1        0.0037
     26 C          62.6247   82.7971   14.4062 C.ar    1  UNL1        0.0714
     27 C          62.6250   83.8325   15.4916 C.3     1  UNL1        0.4184
     28 F          62.6253   84.8678   16.5769 F       1  UNL1       -0.1659
     29 F          63.9121   83.2749   16.0231 F       1  UNL1       -0.1659
     30 F          61.3379   84.3900   14.9601 F       1  UNL1       -0.1659
     31 C          64.3326   88.9451   14.9432 C.3     1  UNL1        0.1334
     32 C          64.1978   90.4006   14.6066 C.3     1  UNL1        0.0968
     33 N          62.9682   91.1548   15.0182 N.3     1  UNL1       -0.3172
     34 H          63.0448   92.1241   14.7100 H       1  UNL1        0.1192
     35 H          62.8765   91.1272   16.0337 H       1  UNL1        0.1192
     36 C          65.2925   91.1020   13.8584 C.ar    1  UNL1       -0.0063
     37 C          66.6751   91.1650   14.4367 C.ar    1  UNL1       -0.0029
     38 C          67.7698   91.8663   13.6885 C.ar    1  UNL1       -0.0003
     39 C          67.4818   92.5047   12.3621 C.ar    1  UNL1       -0.0000
     40 C          66.0992   92.4417   11.7838 C.ar    1  UNL1       -0.0003
     41 C          65.0046   91.7404   12.5319 C.ar    1  UNL1       -0.0029
@<TRIPOS>BOND
     1    15    16    1
     2    16     9    1
     3     9    10   ar
     4    10    11   ar
     5    11    12   ar
     6    12     1    1
     7     1     2   ar
     8     2     3   ar
     9     3    19    1
    10    19    20    1
    11    20    21   ar
    12    21    22    1
    13    21    23   ar
    14    23    24   ar
    15    24    25   ar
    16    25    26   ar
    17    26    27    1
    18    27    28    1
    19    27    29    1
    20    27    30    1
    21     3     4   ar
    22     4     5    2
    23     4     6   ar
    24     6    31    1
    25    31    32    1
    26    32    33    1
    27    32    36    1
    28    36    37   ar
    29    37    38   ar
    30    38    39   ar
    31    39    40   ar
    32    40    41   ar
    33     6     7   ar
    34     7     8    2
    35    12    13   ar
    36    13    14   ar
    37    14     9   ar
    38     7     1   ar
    39    26    20   ar
    40    41    36   ar
    41    15    17    1
    42    15    18    1
    43    33    34    1
    44    33    35    1
@<TRIPOS>MOLECULE
*****
 41 44 0 0 0
SMALL
GASTEIGER

@<TRIPOS>ATOM
      1 C          62.3483   87.6813   11.5512 C.ar    1  UNL1        0.0736
      2 C          62.8566   86.3246   11.9396 C.ar    1  UNL1        0.0847
      3 N          63.7715   86.1758   13.1189 N.ar    1  UNL1       -0.2755
      4 C          64.1781   87.3837   13.9098 C.ar    1  UNL1        0.3341
      5 O          65.0931   87.2349   15.0891 O.2     1  UNL1       -0.2462
      6 N          63.6699   88.7404   13.5213 N.ar    1  UNL1       -0.2470
      7 C          62.7550   88.8892   12.3420 C.ar    1  UNL1        0.2657
      8 O          62.2467   90.2460   11.9536 O.2     1  UNL1       -0.2668
      9 C          59.6035   88.1277    8.0132 C.ar    1  UNL1       -0.0066
     10 C          59.9112   86.7638    8.5564 C.ar    1  UNL1       -0.0029
     11 C          60.8261   86.6150    9.7357 C.ar    1  UNL1       -0.0001
     12 C          61.4334   87.8301   10.3719 C.ar    1  UNL1        0.0060
     13 C          61.1257   89.1940    9.8287 C.ar    1  UNL1       -0.0001
     14 C          60.2108   89.3428    8.6494 C.ar    1  UNL1       -0.0029
     15 N          58.6777   89.5551    6.0497 N.3     1  UNL1       -0.3175
     16 C          58.6886   88.2765    6.8339 C.3     1  UNL1        0.0922
     17 H          58.0020   89.4818    5.2892 H       1  UNL1        0.1192
     18 H          59.6065   89.7253    5.6640 H       1  UNL1        0.1192
     19 C          64.2797   84.8190   13.5074 C.3     1  UNL1        0.1394
     20 C          63.3474   83.6440   13.5194 C.ar    1  UNL1        0.0319
     21 C          62.5287   83.3487   14.7411 C.ar    1  UNL1        0.1379
     22 F          62.6423   84.2284   15.9507 F       1  UNL1       -0.2044
     23 C          61.5963   82.1737   14.7531 C.ar    1  UNL1        0.0294
     24 C          61.4828   81.2940   13.5435 C.ar    1  UNL1        0.0022
     25 C          62.3015   81.5893   12.3218 C.ar    1  UNL1        0.0037
     26 C          63.2338   82.7643   12.3097 C.ar    1  UNL1        0.0714
     27 C          64.0525   83.0596   11.0881 C.3     1  UNL1        0.4184
     28 F          64.8713   83.3549    9.8664 F       1  UNL1       -0.1659
     29 F          62.9094   83.8405   10.5107 F       1  UNL1       -0.1659
     30 F          65.1957   82.2786   11.6654 F       1  UNL1       -0.1659
     31 C          64.0765   89.9484   14.3122 C.3     1  UNL1        0.1334
     32 C          64.8975   91.0255   13.6674 C.3     1  UNL1        0.0968
     33 N          64.5473   91.5142   12.2931 N.3     1  UNL1       -0.3172
     34 H          65.2053   92.2415   12.0130 H       1  UNL1        0.1192
     35 H          63.6012   91.8955   12.2987 H       1  UNL1        0.1192
     36 C          66.0687   91.6140   14.3968 C.ar    1  UNL1       -0.0063
     37 C          65.8794   92.2156   15.7578 C.ar    1  UNL1       -0.0029
     38 C          67.0505   92.8041   16.4872 C.ar    1  UNL1       -0.0003
     39 C          68.4110   92.7909   15.8557 C.ar    1  UNL1       -0.0000
     40 C          68.6003   92.1893   14.4947 C.ar    1  UNL1       -0.0003
     41 C          67.4292   91.6009   13.7653 C.ar    1  UNL1       -0.0029
@<TRIPOS>BOND
     1    15    16    1
     2    16     9    1
     3     9    10   ar
     4    10    11   ar
     5    11    12   ar
     6    12     1    1
     7     1     2   ar
     8     2     3   ar
     9     3    19    1
    10    19    20    1
    11    20    21   ar
    12    21    22    1
    13    21    23   ar
    14    23    24   ar
    15    24    25   ar
    16    25    26   ar
    17    26    27    1
    18    27    28    1
    19    27    29    1
    20    27    30    1
    21     3     4   ar
    22     4     5    2
    23     4     6   ar
    24     6    31    1
    25    31    32    1
    26    32    33    1
    27    32    36    1
    28    36    37   ar
    29    37    38   ar
    30    38    39   ar
    31    39    40   ar
    32    40    41   ar
    33     6     7   ar
    34     7     8    2
    35    12    13   ar
    36    13    14   ar
    37    14     9   ar
    38     7     1   ar
    39    26    20   ar
    40    41    36   ar
    41    15    17    1
    42    15    18    1
    43    33    34    1
    44    33    35    1
@<TRIPOS>MOLECULE
*****
 41 44 0 0 0
SMALL
GASTEIGER

@<TRIPOS>ATOM
      1 C          63.3009   85.8493   13.0710 C.ar    1  UNL1        0.0736
      2 C          62.8180   86.4784   11.7978 C.ar    1  UNL1        0.0847
      3 N          62.9530   87.9583   11.5943 N.ar    1  UNL1       -0.2755
      4 C          63.5709   88.8092   12.6639 C.ar    1  UNL1        0.3341
      5 O          63.7060   90.2892   12.4603 O.2     1  UNL1       -0.2462
      6 N          64.0538   88.1802   13.9370 N.ar    1  UNL1       -0.2470
      7 C          63.9188   86.7002   14.1406 C.ar    1  UNL1        0.2657
      8 O          64.4017   86.0711   15.4139 O.2     1  UNL1       -0.2668
      9 C          62.8958   81.4094   13.6817 C.ar    1  UNL1       -0.0066
     10 C          62.1702   82.3602   14.5868 C.ar    1  UNL1       -0.0029
     11 C          62.3052   83.8402   14.3833 C.ar    1  UNL1       -0.0001
     12 C          63.1659   84.3693   13.2746 C.ar    1  UNL1        0.0060
     13 C          63.8915   83.4185   12.3695 C.ar    1  UNL1       -0.0001
     14 C          63.7565   81.9385   12.5730 C.ar    1  UNL1       -0.0029
     15 N          62.4303   79.0396   12.7238 N.3     1  UNL1       -0.3175
     16 C          62.7608   79.9294   13.8853 C.3     1  UNL1        0.0922
     17 H          62.3777   78.0717   13.0412 H       1  UNL1        0.1192
     18 H          63.1563   79.1253   12.0125 H       1  UNL1        0.1192
     19 C          62.4701   88.5874   10.3210 C.3     1  UNL1        0.1394
     20 C          61.4176   87.9043    9.4991 C.ar    1  UNL1        0.0319
     21 C          61.7896   86.7562    8.6082 C.ar    1  UNL1        0.1379
     22 F          63.2140   86.2913    8.5393 F       1  UNL1       -0.2044
     23 C          60.7370   86.0731    7.7863 C.ar    1  UNL1        0.0294
     24 C          59.3126   86.5380    7.8553 C.ar    1  UNL1        0.0022
     25 C          58.9406   87.6860    8.7462 C.ar    1  UNL1        0.0037
     26 C          59.9931   88.3692    9.5680 C.ar    1  UNL1        0.0714
     27 C          59.6211   89.5172   10.4589 C.3     1  UNL1        0.4184
     28 F          59.2492   90.6653   11.3498 F       1  UNL1       -0.1659
     29 F          59.8547   90.4721    9.3259 F       1  UNL1       -0.1659
     30 F          59.3875   88.5624   11.5919 F       1  UNL1       -0.1659
     31 C          64.6718   89.0311   15.0067 C.3     1  UNL1        0.1334
     32 C          64.5378   90.5239   14.9484 C.3     1  UNL1        0.0968
     33 N          63.1775   91.1531   14.8894 N.3     1  UNL1       -0.3172
     34 H          63.2735   92.1680   14.8546 H       1  UNL1        0.1192
     35 H          62.6450   90.8902   15.7187 H       1  UNL1        0.1192
     36 C          65.7643   91.3876   14.9490 C.ar    1  UNL1       -0.0063
     37 C          66.0255   92.3184   16.0959 C.ar    1  UNL1       -0.0029
     38 C          67.2519   93.1821   16.0965 C.ar    1  UNL1       -0.0003
     39 C          68.2170   93.1149   14.9503 C.ar    1  UNL1       -0.0000
     40 C          67.9558   92.1841   13.8034 C.ar    1  UNL1       -0.0003
     41 C          66.7295   91.3204   13.8027 C.ar    1  UNL1       -0.0029
@<TRIPOS>BOND
     1    15    16    1
     2    16     9    1
     3     9    10   ar
     4    10    11   ar
     5    11    12   ar
     6    12     1    1
     7     1     2   ar
     8     2     3   ar
     9     3    19    1
    10    19    20    1
    11    20    21   ar
    12    21    22    1
    13    21    23   ar
    14    23    24   ar
    15    24    25   ar
    16    25    26   ar
    17    26    27    1
    18    27    28    1
    19    27    29    1
    20    27    30    1
    21     3     4   ar
    22     4     5    2
    23     4     6   ar
    24     6    31    1
    25    31    32    1
    26    32    33    1
    27    32    36    1
    28    36    37   ar
    29    37    38   ar
    30    38    39   ar
    31    39    40   ar
    32    40    41   ar
    33     6     7   ar
    34     7     8    2
    35    12    13   ar
    36    13    14   ar
    37    14     9   ar
    38     7     1   ar
    39    26    20   ar
    40    41    36   ar
    41    15    17    1
    42    15    18    1
    43    33    34    1
    44    33    35    1
@<TRIPOS>MOLECULE
*****
 41 44 0 0 0
SMALL
GASTEIGER

@<TRIPOS>ATOM
      1 C          62.3859   87.7972   11.5410 C.ar    1  UNL1        0.0736
      2 C          62.9296   86.4627   11.9574 C.ar    1  UNL1        0.0847
      3 N          63.8492   86.3628   13.1382 N.ar    1  UNL1       -0.2755
      4 C          64.2252   87.5974   13.9026 C.ar    1  UNL1        0.3341
      5 O          65.1448   87.4976   15.0834 O.2     1  UNL1       -0.2462
      6 N          63.6814   88.9319   13.4862 N.ar    1  UNL1       -0.2470
      7 C          62.7618   89.0318   12.3054 C.ar    1  UNL1        0.2657
      8 O          62.2181   90.3664   11.8890 O.2     1  UNL1       -0.2668
      9 C          59.6269   88.0968    7.9986 C.ar    1  UNL1       -0.0066
     10 C          59.9636   86.7538    8.5755 C.ar    1  UNL1       -0.0029
     11 C          60.8833   86.6539    9.7563 C.ar    1  UNL1       -0.0001
     12 C          61.4662   87.8971   10.3602 C.ar    1  UNL1        0.0060
     13 C          61.1295   89.2401    9.7833 C.ar    1  UNL1       -0.0001
     14 C          60.2099   89.3400    8.6025 C.ar    1  UNL1       -0.0029
     15 N          58.6064   89.4828    6.0525 N.3     1  UNL1       -0.3175
     16 C          58.7073   88.1967    6.8178 C.3     1  UNL1        0.0922
     17 H          57.9400   89.3722    5.2881 H       1  UNL1        0.1192
     18 H          59.5216   89.7255    5.6732 H       1  UNL1        0.1192
     19 C          64.3929   85.0282   13.5546 C.3     1  UNL1        0.1394
     20 C          63.5639   83.7912   13.3742 C.ar    1  UNL1        0.0319
     21 C          63.6886   82.9814   12.1178 C.ar    1  UNL1        0.1379
     22 F          64.6424   83.4085   11.0418 F       1  UNL1       -0.2044
     23 C          62.8596   81.7443   11.9375 C.ar    1  UNL1        0.0294
     24 C          61.9059   81.3172   13.0135 C.ar    1  UNL1        0.0022
     25 C          61.7811   82.1271   14.2700 C.ar    1  UNL1        0.0037
     26 C          62.6101   83.3641   14.4503 C.ar    1  UNL1        0.0714
     27 C          62.4854   84.1739   15.7067 C.3     1  UNL1        0.4184
     28 F          62.3607   84.9838   16.9632 F       1  UNL1       -0.1659
     29 F          61.1807   84.7301   15.2187 F       1  UNL1       -0.1659
     30 F          63.7902   83.6177   16.1948 F       1  UNL1       -0.1659
     31 C          64.0574   90.1667   14.2506 C.3     1  UNL1        0.1334
     32 C          64.9389   91.2017   13.6169 C.3     1  UNL1        0.0968
     33 N          64.6319   91.7058   12.2379 N.3     1  UNL1       -0.3172
     34 H          65.3286   92.3997   11.9667 H       1  UNL1        0.1192
     35 H          63.7057   92.1329   12.2304 H       1  UNL1        0.1192
     36 C          66.1274   91.7328   14.3623 C.ar    1  UNL1       -0.0063
     37 C          67.4851   91.7067   13.7253 C.ar    1  UNL1       -0.0029
     38 C          68.6736   92.2377   14.4706 C.ar    1  UNL1       -0.0003
     39 C          68.5043   92.7948   15.8529 C.ar    1  UNL1       -0.0000
     40 C          67.1466   92.8209   16.4900 C.ar    1  UNL1       -0.0003
     41 C          65.9581   92.2899   15.7447 C.ar    1  UNL1       -0.0029
@<TRIPOS>BOND
     1    15    16    1
     2    16     9    1
     3     9    10   ar
     4    10    11   ar
     5    11    12   ar
     6    12     1    1
     7     1     2   ar
     8     2     3   ar
     9     3    19    1
    10    19    20    1
    11    20    21   ar
    12    21    22    1
    13    21    23   ar
    14    23    24   ar
    15    24    25   ar
    16    25    26   ar
    17    26    27    1
    18    27    28    1
    19    27    29    1
    20    27    30    1
    21     3     4   ar
    22     4     5    2
    23     4     6   ar
    24     6    31    1
    25    31    32    1
    26    32    33    1
    27    32    36    1
    28    36    37   ar
    29    37    38   ar
    30    38    39   ar
    31    39    40   ar
    32    40    41   ar
    33     6     7   ar
    34     7     8    2
    35    12    13   ar
    36    13    14   ar
    37    14     9   ar
    38     7     1   ar
    39    26    20   ar
    40    41    36   ar
    41    15    17    1
    42    15    18    1
    43    33    34    1
    44    33    35    1
@<TRIPOS>MOLECULE
*****
 41 44 0 0 0
SMALL
GASTEIGER

@<TRIPOS>ATOM
      1 C          62.9923   89.2505   11.7535 C.ar    1  UNL1        0.0736
      2 C          63.3765   88.2597   12.8120 C.ar    1  UNL1        0.0847
      3 N          64.3464   88.6497   13.8878 N.ar    1  UNL1       -0.2755
      4 C          64.9320   90.0305   13.9050 C.ar    1  UNL1        0.3341
      5 O          65.9019   90.4205   14.9808 O.2     1  UNL1       -0.2462
      6 N          64.5477   91.0213   12.8465 N.ar    1  UNL1       -0.2470
      7 C          63.5779   90.6313   11.7707 C.ar    1  UNL1        0.2657
      8 O          63.1936   91.6223   10.7122 O.2     1  UNL1       -0.2668
      9 C          60.0827   88.0805    8.5262 C.ar    1  UNL1       -0.0066
     10 C          60.0485   89.4658    9.1006 C.ar    1  UNL1       -0.0029
     11 C          61.0184   89.8558   10.1763 C.ar    1  UNL1       -0.0001
     12 C          62.0224   88.8605   10.6778 C.ar    1  UNL1        0.0060
     13 C          62.0565   87.4753   10.1034 C.ar    1  UNL1       -0.0001
     14 C          61.0866   87.0853    9.0277 C.ar    1  UNL1       -0.0029
     15 N          58.3878   86.3800    7.5334 N.3     1  UNL1       -0.3175
     16 C          59.1128   87.6906    7.4505 C.3     1  UNL1        0.0922
     17 H          57.7739   86.2794    6.7251 H       1  UNL1        0.1192
     18 H          57.8319   86.3525    8.3881 H       1  UNL1        0.1192
     19 C          64.7307   87.6588   14.9464 C.3     1  UNL1        0.1394
     20 C          63.8708   86.4550   15.1945 C.ar    1  UNL1        0.0319
     21 C          63.8532   85.3288   14.2040 C.ar    1  UNL1        0.1379
     22 F          64.6956   85.4062   12.9653 F       1  UNL1       -0.2044
     23 C          62.9933   84.1250   14.4521 C.ar    1  UNL1        0.0294
     24 C          62.1509   84.0476   15.6908 C.ar    1  UNL1        0.0022
     25 C          62.1685   85.1738   16.6814 C.ar    1  UNL1        0.0037
     26 C          63.0283   86.3776   16.4333 C.ar    1  UNL1        0.0714
     27 C          63.0459   87.5038   17.4238 C.3     1  UNL1        0.4184
     28 F          63.0634   88.6301   18.4144 F       1  UNL1       -0.1659
     29 F          62.7759   88.4806   16.3179 F       1  UNL1       -0.1659
     30 F          63.3159   86.5270   18.5297 F       1  UNL1       -0.1659
     31 C          65.1333   92.4022   12.8637 C.3     1  UNL1        0.1334
     32 C          66.5907   92.6025   12.5708 C.3     1  UNL1        0.0968
     33 N          67.6071   92.4130   13.6576 N.3     1  UNL1       -0.3172
     34 H          68.5402   92.5885   13.2849 H       1  UNL1        0.1192
     35 H          67.5554   91.4566   14.0084 H       1  UNL1        0.1192
     36 C          67.0319   92.9924   11.1911 C.ar    1  UNL1       -0.0063
     37 C          66.5361   94.2683   10.5777 C.ar    1  UNL1       -0.0029
     38 C          66.9771   94.6582    9.1981 C.ar    1  UNL1       -0.0003
     39 C          67.9140   93.7722    8.4319 C.ar    1  UNL1       -0.0000
     40 C          68.4098   92.4963    9.0453 C.ar    1  UNL1       -0.0003
     41 C          67.9687   92.1064   10.4249 C.ar    1  UNL1       -0.0029
@<TRIPOS>BOND
     1    15    16    1
     2    16     9    1
     3     9    10   ar
     4    10    11   ar
     5    11    12   ar
     6    12     1    1
     7     1     2   ar
     8     2     3   ar
     9     3    19    1
    10    19    20    1
    11    20    21   ar
    12    21    22    1
    13    21    23   ar
    14    23    24   ar
    15    24    25   ar
    16    25    26   ar
    17    26    27    1
    18    27    28    1
    19    27    29    1
    20    27    30    1
    21     3     4   ar
    22     4     5    2
    23     4     6   ar
    24     6    31    1
    25    31    32    1
    26    32    33    1
    27    32    36    1
    28    36    37   ar
    29    37    38   ar
    30    38    39   ar
    31    39    40   ar
    32    40    41   ar
    33     6     7   ar
    34     7     8    2
    35    12    13   ar
    36    13    14   ar
    37    14     9   ar
    38     7     1   ar
    39    26    20   ar
    40    41    36   ar
    41    15    17    1
    42    15    18    1
    43    33    34    1
    44    33    35    1
@<TRIPOS>MOLECULE
*****
 41 44 0 0 0
SMALL
GASTEIGER

@<TRIPOS>ATOM
      1 C          62.3363   86.9169   11.5546 C.ar    1  UNL1        0.0736
      2 C          62.4543   85.4588   11.8864 C.ar    1  UNL1        0.0847
      3 N          63.2893   85.0203   13.0528 N.ar    1  UNL1       -0.2755
      4 C          64.0063   86.0398   13.8873 C.ar    1  UNL1        0.3341
      5 O          64.8413   85.6012   15.0537 O.2     1  UNL1       -0.2462
      6 N          63.8883   87.4978   13.5555 N.ar    1  UNL1       -0.2470
      7 C          63.0533   87.9363   12.3891 C.ar    1  UNL1        0.2657
      8 O          62.9353   89.3945   12.0573 O.2     1  UNL1       -0.2668
      9 C          59.8312   88.2325    8.0554 C.ar    1  UNL1       -0.0066
     10 C          60.2623   86.8006    8.1730 C.ar    1  UNL1       -0.0029
     11 C          61.0973   86.3621    9.3394 C.ar    1  UNL1       -0.0001
     12 C          61.5013   87.3554   10.3882 C.ar    1  UNL1        0.0060
     13 C          61.0702   88.7873   10.2706 C.ar    1  UNL1       -0.0001
     14 C          60.2352   89.2258    9.1043 C.ar    1  UNL1       -0.0029
     15 N          59.3076   89.9589    6.1858 N.3     1  UNL1       -0.3175
     16 C          58.9962   88.6711    6.8891 C.3     1  UNL1        0.0922
     17 H          58.6448   90.0987    5.4233 H       1  UNL1        0.1192
     18 H          60.2551   89.9206    5.8100 H       1  UNL1        0.1192
     19 C          63.4073   83.5621   13.3846 C.3     1  UNL1        0.1394
     20 C          63.3908   82.5396   12.2873 C.ar    1  UNL1        0.0319
     21 C          64.1018   82.8142   10.9954 C.ar    1  UNL1        0.1379
     22 F          64.8294   84.1114   10.8008 F       1  UNL1       -0.2044
     23 C          64.0853   81.7915    9.8981 C.ar    1  UNL1        0.0294
     24 C          63.3578   80.4943   10.0928 C.ar    1  UNL1        0.0022
     25 C          62.6468   80.2197   11.3847 C.ar    1  UNL1        0.0037
     26 C          62.6632   81.2423   12.4819 C.ar    1  UNL1        0.0714
     27 C          61.9522   80.9677   13.7738 C.3     1  UNL1        0.4184
     28 F          61.2412   80.6930   15.0657 F       1  UNL1       -0.1659
     29 F          60.7023   81.5817   13.2164 F       1  UNL1       -0.1659
     30 F          63.2021   80.3536   14.3312 F       1  UNL1       -0.1659
     31 C          64.6053   88.5174   14.3901 C.3     1  UNL1        0.1334
     32 C          64.0190   89.8863   14.5694 C.3     1  UNL1        0.0968
     33 N          62.5915   90.0399   15.0037 N.3     1  UNL1       -0.3172
     34 H          62.3623   91.0313   15.0741 H       1  UNL1        0.1192
     35 H          62.4631   89.5958   15.9129 H       1  UNL1        0.1192
     36 C          64.8603   91.1018   14.3144 C.ar    1  UNL1       -0.0063
     37 C          65.6025   91.7508   15.4448 C.ar    1  UNL1       -0.0029
     38 C          66.4437   92.9662   15.1899 C.ar    1  UNL1       -0.0003
     39 C          66.5427   93.5327   13.8045 C.ar    1  UNL1       -0.0000
     40 C          65.8004   92.8837   12.6741 C.ar    1  UNL1       -0.0003
     41 C          64.9592   91.6683   12.9290 C.ar    1  UNL1       -0.0029
@<TRIPOS>BOND
     1    15    16    1
     2    16     9    1
     3     9    10   ar
     4    10    11   ar
     5    11    12   ar
     6    12     1    1
     7     1     2   ar
     8     2     3   ar
     9     3    19    1
    10    19    20    1
    11    20    21   ar
    12    21    22    1
    13    21    23   ar
    14    23    24   ar
    15    24    25   ar
    16    25    26   ar
    17    26    27    1
    18    27    28    1
    19    27    29    1
    20    27    30    1
    21     3     4   ar
    22     4     5    2
    23     4     6   ar
    24     6    31    1
    25    31    32    1
    26    32    33    1
    27    32    36    1
    28    36    37   ar
    29    37    38   ar
    30    38    39   ar
    31    39    40   ar
    32    40    41   ar
    33     6     7   ar
    34     7     8    2
    35    12    13   ar
    36    13    14   ar
    37    14     9   ar
    38     7     1   ar
    39    26    20   ar
    40    41    36   ar
    41    15    17    1
    42    15    18    1
    43    33    34    1
    44    33    35    1
@<TRIPOS>MOLECULE
*****
 41 44 0 0 0
SMALL
GASTEIGER

@<TRIPOS>ATOM
      1 C          62.5773   86.7076   10.8942 C.ar    1  UNL1        0.0736
      2 C          62.4985   88.1837   11.1489 C.ar    1  UNL1        0.0847
      3 N          62.9209   88.7393   12.4766 N.ar    1  UNL1       -0.2755
      4 C          63.4221   87.8188   13.5497 C.ar    1  UNL1        0.3341
      5 O          63.8445   88.3744   14.8774 O.2     1  UNL1       -0.2462
      6 N          63.5008   86.3427   13.2950 N.ar    1  UNL1       -0.2470
      7 C          63.0785   85.7871   11.9672 C.ar    1  UNL1        0.2657
      8 O          63.1572   84.3109   11.7126 O.2     1  UNL1       -0.2668
      9 C          61.3101   85.0408    6.9110 C.ar    1  UNL1       -0.0066
     10 C          60.3303   85.8070    7.7493 C.ar    1  UNL1       -0.0029
     11 C          60.7527   86.3626    9.0771 C.ar    1  UNL1       -0.0001
     12 C          62.1549   86.1520    9.5664 C.ar    1  UNL1        0.0060
     13 C          63.1347   85.3858    8.7281 C.ar    1  UNL1       -0.0001
     14 C          62.7123   84.8302    7.4003 C.ar    1  UNL1       -0.0029
     15 N          61.9227   84.0881    4.5728 N.3     1  UNL1       -0.3175
     16 C          60.8877   84.4852    5.5832 C.3     1  UNL1        0.0922
     17 H          61.4615   83.7338    3.7349 H       1  UNL1        0.1192
     18 H          62.5199   83.3604    4.9657 H       1  UNL1        0.1192
     19 C          62.8421   90.2155   12.7313 C.3     1  UNL1        0.1394
     20 C          63.9562   91.1143   12.2832 C.ar    1  UNL1        0.0319
     21 C          64.0619   91.5164   10.8419 C.ar    1  UNL1        0.1379
     22 F          63.0536   91.0196    9.8488 F       1  UNL1       -0.2044
     23 C          65.1761   92.4153   10.3939 C.ar    1  UNL1        0.0294
     24 C          66.1844   92.9121   11.3870 C.ar    1  UNL1        0.0022
     25 C          66.0787   92.5101   12.8283 C.ar    1  UNL1        0.0037
     26 C          64.9646   91.6112   13.2763 C.ar    1  UNL1        0.0714
     27 C          64.8589   91.2091   14.7176 C.3     1  UNL1        0.4184
     28 F          64.7532   90.8070   16.1588 F       1  UNL1       -0.1659
     29 F          66.1862   90.5170   14.6218 F       1  UNL1       -0.1659
     30 F          63.5316   91.9013   14.8133 F       1  UNL1       -0.1659
     31 C          64.0020   85.4221   14.3681 C.3     1  UNL1        0.1334
     32 C          63.0511   84.4948   15.0650 C.3     1  UNL1        0.0968
     33 N          62.2800   84.9708   16.2604 N.3     1  UNL1       -0.3172
     34 H          61.6867   84.2160   16.6049 H       1  UNL1        0.1192
     35 H          61.6990   85.7661   15.9955 H       1  UNL1        0.1192
     36 C          62.8713   83.0914   14.5667 C.ar    1  UNL1       -0.0063
     37 C          64.0526   82.3184   14.0598 C.ar    1  UNL1       -0.0029
     38 C          63.8728   80.9151   13.5614 C.ar    1  UNL1       -0.0003
     39 C          62.5117   80.2848   13.5700 C.ar    1  UNL1       -0.0000
     40 C          61.3304   81.0578   14.0769 C.ar    1  UNL1       -0.0003
     41 C          61.5102   82.4611   14.5753 C.ar    1  UNL1       -0.0029
@<TRIPOS>BOND
     1    15    16    1
     2    16     9    1
     3     9    10   ar
     4    10    11   ar
     5    11    12   ar
     6    12     1    1
     7     1     2   ar
     8     2     3   ar
     9     3    19    1
    10    19    20    1
    11    20    21   ar
    12    21    22    1
    13    21    23   ar
    14    23    24   ar
    15    24    25   ar
    16    25    26   ar
    17    26    27    1
    18    27    28    1
    19    27    29    1
    20    27    30    1
    21     3     4   ar
    22     4     5    2
    23     4     6   ar
    24     6    31    1
    25    31    32    1
    26    32    33    1
    27    32    36    1
    28    36    37   ar
    29    37    38   ar
    30    38    39   ar
    31    39    40   ar
    32    40    41   ar
    33     6     7   ar
    34     7     8    2
    35    12    13   ar
    36    13    14   ar
    37    14     9   ar
    38     7     1   ar
    39    26    20   ar
    40    41    36   ar
    41    15    17    1
    42    15    18    1
    43    33    34    1
    44    33    35    1
@<TRIPOS>MOLECULE
*****
 41 44 0 0 0
SMALL
GASTEIGER

@<TRIPOS>ATOM
      1 C          63.8824   90.0900   13.4174 C.ar    1  UNL1        0.0736
      2 C          64.9076   91.1844   13.4511 C.ar    1  UNL1        0.0847
      3 N          65.0875   92.0805   12.2617 N.ar    1  UNL1       -0.2755
      4 C          64.2422   91.8822   11.0386 C.ar    1  UNL1        0.3341
      5 O          64.4221   92.7783    9.8492 O.2     1  UNL1       -0.2462
      6 N          63.2170   90.7878   11.0049 N.ar    1  UNL1       -0.2470
      7 C          63.0371   89.8917   12.1942 C.ar    1  UNL1        0.2657
      8 O          62.0118   88.7973   12.1604 O.2     1  UNL1       -0.2668
      9 C          63.3426   87.4017   16.9855 C.ar    1  UNL1       -0.0066
     10 C          63.9302   86.8564   15.7177 C.ar    1  UNL1       -0.0029
     11 C          64.1101   87.7525   14.5283 C.ar    1  UNL1       -0.0001
     12 C          63.7024   89.1939   14.6068 C.ar    1  UNL1        0.0060
     13 C          63.1149   89.7392   15.8746 C.ar    1  UNL1       -0.0001
     14 C          62.9350   88.8431   17.0640 C.ar    1  UNL1       -0.0029
     15 N          62.4952   87.0271   19.4127 N.3     1  UNL1       -0.3175
     16 C          63.1627   86.5056   18.1749 C.3     1  UNL1        0.0922
     17 H          62.4578   86.2889   20.1156 H       1  UNL1        0.1192
     18 H          61.5477   87.3294   19.1864 H       1  UNL1        0.1192
     19 C          66.1127   93.1750   12.2955 C.3     1  UNL1        0.1394
     20 C          66.9125   93.4916   11.0667 C.ar    1  UNL1        0.0319
     21 C          67.8685   92.4776   10.5121 C.ar    1  UNL1        0.1379
     22 F          68.0248   91.1468   11.1863 F       1  UNL1       -0.2044
     23 C          68.6683   92.7943    9.2832 C.ar    1  UNL1        0.0294
     24 C          68.5121   94.1251    8.6090 C.ar    1  UNL1        0.0022
     25 C          67.5560   95.1391    9.1636 C.ar    1  UNL1        0.0037
     26 C          66.7563   94.8225   10.3924 C.ar    1  UNL1        0.0714
     27 C          65.8002   95.8366   10.9471 C.3     1  UNL1        0.4184
     28 F          64.8442   96.8507   11.5017 F       1  UNL1       -0.1659
     29 F          66.5304   95.8085   12.2571 F       1  UNL1       -0.1659
     30 F          65.0701   95.8647    9.6371 F       1  UNL1       -0.1659
     31 C          62.3716   90.5895    9.7817 C.3     1  UNL1        0.1334
     32 C          61.0309   89.9266    9.8960 C.3     1  UNL1        0.0968
     33 N          59.9431   90.5691   10.7047 N.3     1  UNL1       -0.3172
     34 H          59.1067   89.9862   10.6733 H       1  UNL1        0.1192
     35 H          59.7310   91.4892   10.3191 H       1  UNL1        0.1192
     36 C          60.7779   88.6213    9.2016 C.ar    1  UNL1       -0.0063
     37 C          61.7502   87.4894    9.3548 C.ar    1  UNL1       -0.0029
     38 C          61.4972   86.1842    8.6605 C.ar    1  UNL1       -0.0003
     39 C          60.2720   86.0108    7.8128 C.ar    1  UNL1       -0.0000
     40 C          59.2997   87.1426    7.6595 C.ar    1  UNL1       -0.0003
     41 C          59.5526   88.4479    8.3539 C.ar    1  UNL1       -0.0029
@<TRIPOS>BOND
     1    15    16    1
     2    16     9    1
     3     9    10   ar
     4    10    11   ar
     5    11    12   ar
     6    12     1    1
     7     1     2   ar
     8     2     3   ar
     9     3    19    1
    10    19    20    1
    11    20    21   ar
    12    21    22    1
    13    21    23   ar
    14    23    24   ar
    15    24    25   ar
    16    25    26   ar
    17    26    27    1
    18    27    28    1
    19    27    29    1
    20    27    30    1
    21     3     4   ar
    22     4     5    2
    23     4     6   ar
    24     6    31    1
    25    31    32    1
    26    32    33    1
    27    32    36    1
    28    36    37   ar
    29    37    38   ar
    30    38    39   ar
    31    39    40   ar
    32    40    41   ar
    33     6     7   ar
    34     7     8    2
    35    12    13   ar
    36    13    14   ar
    37    14     9   ar
    38     7     1   ar
    39    26    20   ar
    40    41    36   ar
    41    15    17    1
    42    15    18    1
    43    33    34    1
    44    33    35    1
