@<TRIPOS>MOLECULE
*****
 29 31 0 0 0
SMALL
GASTEIGER

@<TRIPOS>ATOM
      1 N          64.2570   88.5736   15.4870 N.am    1  UNL1       -0.3004
      2 C          64.1544   87.4529   14.4953 C.2     1  UNL1        0.2252
      3 O          63.5378   87.6963   13.1497 O.2     1  UNL1       -0.2750
      4 H          64.6617   88.4139   16.3702 H       1  UNL1        0.1497
      5 C          63.7431   89.9377   15.1331 C.3     1  UNL1        0.1165
      6 C          66.5970   92.3392   13.7774 C.ar    1  UNL1        0.1752
      7 C          65.8063   91.4547   14.6953 C.ar    1  UNL1        0.0376
      8 C          64.5338   90.8221   14.2152 C.ar    1  UNL1        0.0037
      9 C          64.0519   91.0740   12.8173 C.ar    1  UNL1        0.0376
     10 C          64.8427   91.9585   11.8994 C.ar    1  UNL1        0.1752
     11 C          66.1151   92.5911   12.3794 C.ar    1  UNL1        0.2060
     12 C          67.9640   93.4962   15.6597 C.3     1  UNL1        0.2526
     13 O          67.8696   92.9718   14.2576 O.3     1  UNL1       -0.4683
     14 O          64.3608   92.2104   10.5014 O.3     1  UNL1       -0.4683
     15 C          63.1837   91.4506    9.9656 C.3     1  UNL1        0.2526
     16 O          66.9059   93.4756   11.4615 O.3     1  UNL1       -0.4654
     17 C          66.4479   94.8785   11.1933 C.3     1  UNL1        0.2528
     18 C          64.6683   86.0888   14.8492 C.3     1  UNL1        0.1154
     19 C          63.7064   84.9598   15.0730 C.3     1  UNL1        0.1377
     20 C          63.5012   85.6079   16.4101 C.3     1  UNL1        0.0335
     21 C          64.1127   84.5478   13.6891 C.3     1  UNL1        0.0613
     22 C          63.3590   83.2995   13.3370 C.3     1  UNL1        0.1290
     23 C          62.5392   82.0610   13.1271 C.3     1  UNL1        0.0305
     24 C          62.6400   81.3049   11.8356 C.3     1  UNL1        0.0025
     25 C          63.5605   81.7873   10.7539 C.3     1  UNL1        0.0002
     26 C          64.3803   83.0258   10.9639 C.3     1  UNL1        0.0025
     27 C          64.2796   83.7818   12.2554 C.3     1  UNL1        0.0305
     28 O          62.4869   82.9401   14.5034 O.3     1  UNL1       -0.2256
     29 O          62.7016   83.9663   15.5763 O.3     1  UNL1       -0.2251
@<TRIPOS>BOND
     1    12    13    1
     2    13     6    1
     3     6     7   ar
     4     7     8   ar
     5     8     5    1
     6     5     1    1
     7     1     2   am
     8     2     3    2
     9     2    18    1
    10    18    19    1
    11    19    20    1
    12    19    21    1
    13    21    22    1
    14    22    23    1
    15    23    24    1
    16    24    25    1
    17    25    26    1
    18    26    27    1
    19    22    28    1
    20    28    29    1
    21     8     9   ar
    22     9    10   ar
    23    10    14    1
    24    14    15    1
    25    10    11   ar
    26    11    16    1
    27    16    17    1
    28    11     6   ar
    29    29    19    1
    30    27    22    1
    31     1     4    1
@<TRIPOS>MOLECULE
*****
 29 31 0 0 0
SMALL
GASTEIGER

@<TRIPOS>ATOM
      1 N          64.2435   88.5935   15.5123 N.am    1  UNL1       -0.3004
      2 C          64.1520   87.4770   14.5146 C.2     1  UNL1        0.2252
      3 O          63.5566   87.7277   13.1610 O.2     1  UNL1       -0.2750
      4 H          64.6343   88.4289   16.4008 H       1  UNL1        0.1497
      5 C          63.7394   89.9606   15.1562 C.3     1  UNL1        0.1165
      6 C          64.8442   91.9604   11.9111 C.ar    1  UNL1        0.1752
      7 C          64.0498   91.0853   12.8348 C.ar    1  UNL1        0.0376
      8 C          64.5338   90.8357   14.2325 C.ar    1  UNL1        0.0037
      9 C          65.8120   91.4613   14.7065 C.ar    1  UNL1        0.0376
     10 C          66.6063   92.3365   13.7827 C.ar    1  UNL1        0.1752
     11 C          66.1224   92.5860   12.3851 C.ar    1  UNL1        0.2060
     12 C          63.1915   91.4386    9.9754 C.3     1  UNL1        0.2526
     13 O          64.3602   92.2099   10.5134 O.3     1  UNL1       -0.4683
     14 O          67.8846   92.9620   14.2568 O.3     1  UNL1       -0.4683
     15 C          67.9894   93.4835   15.6593 C.3     1  UNL1        0.2526
     16 O          66.9168   93.4611   11.4614 O.3     1  UNL1       -0.4654
     17 C          66.4569   94.8593   11.1727 C.3     1  UNL1        0.2528
     18 C          64.6561   86.1098   14.8708 C.3     1  UNL1        0.1154
     19 C          63.6867   84.9859   15.0870 C.3     1  UNL1        0.1377
     20 C          63.4710   85.6376   16.4207 C.3     1  UNL1        0.0335
     21 C          64.1050   84.5692   13.7081 C.3     1  UNL1        0.0613
     22 C          63.3489   83.3238   13.3508 C.3     1  UNL1        0.1290
     23 C          62.5253   82.0889   13.1349 C.3     1  UNL1        0.0305
     24 C          62.6355   81.3298   11.8459 C.3     1  UNL1        0.0025
     25 C          63.5693   81.8057   10.7727 C.3     1  UNL1        0.0002
     26 C          64.3928   83.0406   10.9886 C.3     1  UNL1        0.0025
     27 C          64.2826   83.7997   12.2776 C.3     1  UNL1        0.0305
     28 O          62.4633   82.9709   14.5089 O.3     1  UNL1       -0.2256
     29 O          62.6720   83.9982   15.5819 O.3     1  UNL1       -0.2251
@<TRIPOS>BOND
     1    12    13    1
     2    13     6    1
     3     6     7   ar
     4     7     8   ar
     5     8     5    1
     6     5     1    1
     7     1     2   am
     8     2     3    2
     9     2    18    1
    10    18    19    1
    11    19    20    1
    12    19    21    1
    13    21    22    1
    14    22    23    1
    15    23    24    1
    16    24    25    1
    17    25    26    1
    18    26    27    1
    19    22    28    1
    20    28    29    1
    21     8     9   ar
    22     9    10   ar
    23    10    14    1
    24    14    15    1
    25    10    11   ar
    26    11    16    1
    27    16    17    1
    28    11     6   ar
    29    29    19    1
    30    27    22    1
    31     1     4    1
@<TRIPOS>MOLECULE
*****
 29 31 0 0 0
SMALL
GASTEIGER

@<TRIPOS>ATOM
      1 N          62.3944   89.3519   10.2600 N.am    1  UNL1       -0.3004
      2 C          60.9505   88.9514   10.3285 C.2     1  UNL1        0.2252
      3 O          59.8826   90.0029   10.3905 O.2     1  UNL1       -0.2750
      4 H          63.0953   88.6617   10.2193 H       1  UNL1        0.1497
      5 C          62.7704   90.8040   10.2536 C.3     1  UNL1        0.1165
      6 C          65.7918   92.8540   11.8089 C.ar    1  UNL1        0.1752
      7 C          64.7935   92.3334   10.8178 C.ar    1  UNL1        0.0376
      8 C          63.7688   91.3246   11.2447 C.ar    1  UNL1        0.0037
      9 C          63.7424   90.8364   12.6628 C.ar    1  UNL1        0.0376
     10 C          64.7408   91.3570   13.6539 C.ar    1  UNL1        0.1752
     11 C          65.7654   92.3657   13.2270 C.ar    1  UNL1        0.2060
     12 C          66.4023   95.2739   11.0867 C.3     1  UNL1        0.2526
     13 O          66.8165   93.8628   11.3819 O.3     1  UNL1       -0.4683
     14 O          64.7144   90.8688   15.0720 O.3     1  UNL1       -0.4683
     15 C          63.6232   89.9458   15.5272 C.3     1  UNL1        0.2526
     16 O          66.7638   92.8864   14.2181 O.3     1  UNL1       -0.4654
     17 C          68.0381   92.1344   14.4645 C.3     1  UNL1        0.2528
     18 C          60.5744   87.4992   10.3348 C.3     1  UNL1        0.1154
     19 C          61.3339   86.5242    9.4850 C.3     1  UNL1        0.1377
     20 C          60.6518   87.2252    8.3477 C.3     1  UNL1        0.0335
     21 C          61.8572   86.0270   10.7999 C.3     1  UNL1        0.0613
     22 C          62.7976   84.8911   10.5249 C.3     1  UNL1        0.1290
     23 C          63.7072   83.7776   10.0976 C.3     1  UNL1        0.0305
     24 C          64.4579   82.9857   11.1268 C.3     1  UNL1        0.0025
     25 C          64.2990   83.3072   12.5833 C.3     1  UNL1        0.0002
     26 C          63.3894   84.4207   13.0106 C.3     1  UNL1        0.0025
     27 C          62.6387   85.2127   11.9814 C.3     1  UNL1        0.0305
     28 O          62.8555   84.6863    9.0401 O.3     1  UNL1       -0.2256
     29 O          61.9508   85.6956    8.3973 O.3     1  UNL1       -0.2251
@<TRIPOS>BOND
     1    12    13    1
     2    13     6    1
     3     6     7   ar
     4     7     8   ar
     5     8     5    1
     6     5     1    1
     7     1     2   am
     8     2     3    2
     9     2    18    1
    10    18    19    1
    11    19    20    1
    12    19    21    1
    13    21    22    1
    14    22    23    1
    15    23    24    1
    16    24    25    1
    17    25    26    1
    18    26    27    1
    19    22    28    1
    20    28    29    1
    21     8     9   ar
    22     9    10   ar
    23    10    14    1
    24    14    15    1
    25    10    11   ar
    26    11    16    1
    27    16    17    1
    28    11     6   ar
    29    29    19    1
    30    27    22    1
    31     1     4    1
@<TRIPOS>MOLECULE
*****
 29 31 0 0 0
SMALL
GASTEIGER

@<TRIPOS>ATOM
      1 N          62.4027   89.3457   10.2661 N.am    1  UNL1       -0.3004
      2 C          60.9558   88.9591   10.3503 C.2     1  UNL1        0.2252
      3 O          59.8985   90.0209   10.4182 O.2     1  UNL1       -0.2750
      4 H          63.0967   88.6488   10.2215 H       1  UNL1        0.1497
      5 C          62.7922   90.7942   10.2500 C.3     1  UNL1        0.1165
      6 C          64.7095   91.3672   13.6772 C.ar    1  UNL1        0.1752
      7 C          63.7235   90.8445   12.6749 C.ar    1  UNL1        0.0376
      8 C          63.7783   91.3168   11.2523 C.ar    1  UNL1        0.0037
      9 C          64.8191   92.3118   10.8319 C.ar    1  UNL1        0.0376
     10 C          65.8051   92.8344   11.8342 C.ar    1  UNL1        0.1752
     11 C          65.7503   92.3622   13.2568 C.ar    1  UNL1        0.2060
     12 C          63.6000   89.9167   15.5253 C.3     1  UNL1        0.2526
     13 O          64.6546   90.8949   15.0999 O.3     1  UNL1       -0.4683
     14 O          66.8459   93.8294   11.4139 O.3     1  UNL1       -0.4683
     15 C          66.4309   95.1596   10.8585 C.3     1  UNL1        0.2526
     16 O          66.7363   92.8848   14.2592 O.3     1  UNL1       -0.4654
     17 C          68.0500   92.1872   14.4530 C.3     1  UNL1        0.2528
     18 C          60.5662   87.5106   10.3664 C.3     1  UNL1        0.1154
     19 C          61.3018   86.5266    9.5060 C.3     1  UNL1        0.1377
     20 C          60.5945   87.2210    8.3802 C.3     1  UNL1        0.0335
     21 C          61.8554   86.0378   10.8116 C.3     1  UNL1        0.0613
     22 C          62.7853   84.8968   10.5228 C.3     1  UNL1        0.1290
     23 C          63.6809   83.7771   10.0823 C.3     1  UNL1        0.0305
     24 C          64.4539   82.9906   11.0991 C.3     1  UNL1        0.0025
     25 C          64.3313   83.3239   12.5564 C.3     1  UNL1        0.0002
     26 C          63.4358   84.4436   12.9970 C.3     1  UNL1        0.0025
     27 C          62.6628   85.2301   11.9802 C.3     1  UNL1        0.0305
     28 O          62.8065   84.6804    9.0386 O.3     1  UNL1       -0.2256
     29 O          61.8896   85.6877    8.4102 O.3     1  UNL1       -0.2251
@<TRIPOS>BOND
     1    12    13    1
     2    13     6    1
     3     6     7   ar
     4     7     8   ar
     5     8     5    1
     6     5     1    1
     7     1     2   am
     8     2     3    2
     9     2    18    1
    10    18    19    1
    11    19    20    1
    12    19    21    1
    13    21    22    1
    14    22    23    1
    15    23    24    1
    16    24    25    1
    17    25    26    1
    18    26    27    1
    19    22    28    1
    20    28    29    1
    21     8     9   ar
    22     9    10   ar
    23    10    14    1
    24    14    15    1
    25    10    11   ar
    26    11    16    1
    27    16    17    1
    28    11     6   ar
    29    29    19    1
    30    27    22    1
    31     1     4    1
@<TRIPOS>MOLECULE
*****
 29 31 0 0 0
SMALL
GASTEIGER

@<TRIPOS>ATOM
      1 N          64.1150   85.4710   14.2400 N.am    1  UNL1       -0.3004
      2 C          62.9581   84.5758   14.5724 C.2     1  UNL1        0.2252
      3 O          61.9622   84.9927   15.6135 O.2     1  UNL1       -0.2750
      4 H          64.7687   85.1974   13.5566 H       1  UNL1        0.1497
      5 C          64.2758   86.7831   14.9490 C.3     1  UNL1        0.1165
      6 C          63.3206   89.3625   12.0882 C.ar    1  UNL1        0.1752
      7 C          63.4620   88.0770   12.8482 C.ar    1  UNL1        0.0376
      8 C          64.1344   88.0685   14.1890 C.ar    1  UNL1        0.0037
      9 C          64.6655   89.3455   14.7698 C.ar    1  UNL1        0.0376
     10 C          64.5242   90.6309   14.0097 C.ar    1  UNL1        0.1752
     11 C          63.8517   90.6394   12.6690 C.ar    1  UNL1        0.2060
     12 C          61.2576   89.9159   10.6091 C.3     1  UNL1        0.2526
     13 O          62.6482   89.3709   10.7474 O.3     1  UNL1       -0.4683
     14 O          65.0553   91.9079   14.5905 O.3     1  UNL1       -0.4683
     15 C          66.4415   92.3678   14.2486 C.3     1  UNL1        0.2526
     16 O          63.7104   91.9249   11.9089 O.3     1  UNL1       -0.4654
     17 C          64.7058   92.2802   10.8446 C.3     1  UNL1        0.2528
     18 C          62.7973   83.2637   13.8633 C.3     1  UNL1        0.1154
     19 C          63.5426   83.0043   12.5878 C.3     1  UNL1        0.1377
     20 C          64.2531   81.9618   13.3992 C.3     1  UNL1        0.0335
     21 C          62.6764   84.1011   12.0430 C.3     1  UNL1        0.0613
     22 C          63.0349   84.3016   10.6003 C.3     1  UNL1        0.1290
     23 C          63.4988   84.3873    9.1764 C.3     1  UNL1        0.0305
     24 C          62.8784   85.3853    8.2443 C.3     1  UNL1        0.0025
     25 C          61.7941   86.2977    8.7360 C.3     1  UNL1        0.0002
     26 C          61.3302   86.2121   10.1599 C.3     1  UNL1        0.0025
     27 C          61.9506   85.2140   11.0920 C.3     1  UNL1        0.0305
     28 O          64.1227   83.3288   10.2534 O.3     1  UNL1       -0.2256
     29 O          64.4365   82.5270   11.4818 O.3     1  UNL1       -0.2251
@<TRIPOS>BOND
     1    12    13    1
     2    13     6    1
     3     6     7   ar
     4     7     8   ar
     5     8     5    1
     6     5     1    1
     7     1     2   am
     8     2     3    2
     9     2    18    1
    10    18    19    1
    11    19    20    1
    12    19    21    1
    13    21    22    1
    14    22    23    1
    15    23    24    1
    16    24    25    1
    17    25    26    1
    18    26    27    1
    19    22    28    1
    20    28    29    1
    21     8     9   ar
    22     9    10   ar
    23    10    14    1
    24    14    15    1
    25    10    11   ar
    26    11    16    1
    27    16    17    1
    28    11     6   ar
    29    29    19    1
    30    27    22    1
    31     1     4    1
@<TRIPOS>MOLECULE
*****
 29 31 0 0 0
SMALL
GASTEIGER

@<TRIPOS>ATOM
      1 N          64.0858   85.4569   14.2303 N.am    1  UNL1       -0.3004
      2 C          62.9408   84.5594   14.5960 C.2     1  UNL1        0.2252
      3 O          61.9769   84.9725   15.6684 O.2     1  UNL1       -0.2750
      4 H          64.7185   85.1857   13.5264 H       1  UNL1        0.1497
      5 C          64.2667   86.7674   14.9372 C.3     1  UNL1        0.1165
      6 C          64.5473   90.6124   13.9950 C.ar    1  UNL1        0.1752
      7 C          64.6803   89.3259   14.7547 C.ar    1  UNL1        0.0376
      8 C          64.1337   88.0539   14.1774 C.ar    1  UNL1        0.0037
      9 C          63.4540   88.0684   12.8403 C.ar    1  UNL1        0.0376
     10 C          63.3210   89.3550   12.0806 C.ar    1  UNL1        0.1752
     11 C          63.8676   90.6269   12.6579 C.ar    1  UNL1        0.2060
     12 C          66.5105   92.2884   14.2897 C.3     1  UNL1        0.2526
     13 O          65.0939   91.8843   14.5724 O.3     1  UNL1       -0.4683
     14 O          62.6414   89.3695   10.7435 O.3     1  UNL1       -0.4683
     15 C          61.2442   89.9008   10.6181 C.3     1  UNL1        0.2526
     16 O          63.7346   91.9135   11.8982 O.3     1  UNL1       -0.4654
     17 C          64.7939   92.3174   10.9160 C.3     1  UNL1        0.2528
     18 C          62.7598   83.2487   13.8892 C.3     1  UNL1        0.1154
     19 C          63.5153   82.9684   12.6240 C.3     1  UNL1        0.1377
     20 C          64.2025   81.9232   13.4517 C.3     1  UNL1        0.0335
     21 C          62.6701   84.0723   12.0608 C.3     1  UNL1        0.0613
     22 C          63.0468   84.2558   10.6204 C.3     1  UNL1        0.1290
     23 C          63.5272   84.3231    9.2011 C.3     1  UNL1        0.0305
     24 C          62.9307   85.3217    8.2540 C.3     1  UNL1        0.0025
     25 C          61.8538   86.2530    8.7264 C.3     1  UNL1        0.0002
     26 C          61.3734   86.1856   10.1457 C.3     1  UNL1        0.0025
     27 C          61.9699   85.1870   11.0928 C.3     1  UNL1        0.0305
     28 O          64.1249   83.2653   10.2935 O.3     1  UNL1       -0.2256
     29 O          64.4144   82.4696   11.5318 O.3     1  UNL1       -0.2251
@<TRIPOS>BOND
     1    12    13    1
     2    13     6    1
     3     6     7   ar
     4     7     8   ar
     5     8     5    1
     6     5     1    1
     7     1     2   am
     8     2     3    2
     9     2    18    1
    10    18    19    1
    11    19    20    1
    12    19    21    1
    13    21    22    1
    14    22    23    1
    15    23    24    1
    16    24    25    1
    17    25    26    1
    18    26    27    1
    19    22    28    1
    20    28    29    1
    21     8     9   ar
    22     9    10   ar
    23    10    14    1
    24    14    15    1
    25    10    11   ar
    26    11    16    1
    27    16    17    1
    28    11     6   ar
    29    29    19    1
    30    27    22    1
    31     1     4    1
@<TRIPOS>MOLECULE
*****
 29 31 0 0 0
SMALL
GASTEIGER

@<TRIPOS>ATOM
      1 N          62.9500   84.1219   11.2864 N.am    1  UNL1       -0.3004
      2 C          64.0510   83.1032   11.2812 C.2     1  UNL1        0.2252
      3 O          64.7997   82.8144   10.0140 O.2     1  UNL1       -0.2750
      4 H          62.4586   84.3114   12.1182 H       1  UNL1        0.1497
      5 C          62.5977   84.8518   10.0242 C.3     1  UNL1        0.1165
      6 C          61.6924   88.5203   11.2375 C.ar    1  UNL1        0.1752
      7 C          62.3446   87.1714   11.1667 C.ar    1  UNL1        0.0376
      8 C          61.9455   86.2007   10.0950 C.ar    1  UNL1        0.0037
      9 C          60.8944   86.5790    9.0940 C.ar    1  UNL1        0.0376
     10 C          60.2423   87.9281    9.1649 C.ar    1  UNL1        0.1752
     11 C          60.6413   88.8986   10.2366 C.ar    1  UNL1        0.2060
     12 C          63.4970   89.4937   12.8332 C.3     1  UNL1        0.2526
     13 O          62.0915   89.4909   12.3093 O.3     1  UNL1       -0.4683
     14 O          59.1911   88.3064    8.1639 O.3     1  UNL1       -0.4683
     15 C          59.5374   89.2100    7.0179 C.3     1  UNL1        0.2526
     16 O          59.9891   90.2477   10.3074 O.3     1  UNL1       -0.4654
     17 C          59.1736   90.6243   11.5086 C.3     1  UNL1        0.2528
     18 C          64.4034   82.3732   12.5435 C.3     1  UNL1        0.1154
     19 C          63.4660   82.4039   13.7140 C.3     1  UNL1        0.1377
     20 C          63.1373   81.0041   13.2867 C.3     1  UNL1        0.0335
     21 C          63.9906   83.7972   13.8967 C.3     1  UNL1        0.0613
     22 C          63.3087   84.3965   15.0909 C.3     1  UNL1        0.1290
     23 C          62.5498   84.8596   16.2990 C.3     1  UNL1        0.0305
     24 C          62.7745   86.2395   16.8423 C.3     1  UNL1        0.0025
     25 C          63.7582   87.1563   16.1776 C.3     1  UNL1        0.0002
     26 C          64.5171   86.6932   14.9695 C.3     1  UNL1        0.0025
     27 C          64.2924   85.3133   14.4262 C.3     1  UNL1        0.0305
     28 O          62.3627   83.3735   15.6463 O.3     1  UNL1       -0.2256
     29 O          62.4599   82.1419   14.7953 O.3     1  UNL1       -0.2251
@<TRIPOS>BOND
     1    12    13    1
     2    13     6    1
     3     6     7   ar
     4     7     8   ar
     5     8     5    1
     6     5     1    1
     7     1     2   am
     8     2     3    2
     9     2    18    1
    10    18    19    1
    11    19    20    1
    12    19    21    1
    13    21    22    1
    14    22    23    1
    15    23    24    1
    16    24    25    1
    17    25    26    1
    18    26    27    1
    19    22    28    1
    20    28    29    1
    21     8     9   ar
    22     9    10   ar
    23    10    14    1
    24    14    15    1
    25    10    11   ar
    26    11    16    1
    27    16    17    1
    28    11     6   ar
    29    29    19    1
    30    27    22    1
    31     1     4    1
@<TRIPOS>MOLECULE
*****
 29 31 0 0 0
SMALL
GASTEIGER

@<TRIPOS>ATOM
      1 N          62.9813   84.2005   11.2940 N.am    1  UNL1       -0.3004
      2 C          64.0563   83.1544   11.2734 C.2     1  UNL1        0.2252
      3 O          64.7480   82.8151    9.9865 O.2     1  UNL1       -0.2750
      4 H          62.5272   84.4232   12.1386 H       1  UNL1        0.1497
      5 C          62.5982   84.9071   10.0275 C.3     1  UNL1        0.1165
      6 C          60.2322   87.9685    9.1444 C.ar    1  UNL1        0.1752
      7 C          60.8910   86.6224    9.0823 C.ar    1  UNL1        0.0376
      8 C          61.9394   86.2532   10.0896 C.ar    1  UNL1        0.0037
      9 C          62.3291   87.2303   11.1590 C.ar    1  UNL1        0.0376
     10 C          61.6702   88.5765   11.2210 C.ar    1  UNL1        0.1752
     11 C          60.6219   88.9456   10.2138 C.ar    1  UNL1        0.2060
     12 C          59.5314   89.2364    6.9877 C.3     1  UNL1        0.2526
     13 O          59.1838   88.3376    8.1371 O.3     1  UNL1       -0.4683
     14 O          62.0599   89.5535   12.2904 O.3     1  UNL1       -0.4683
     15 C          63.4650   89.5700   12.8153 C.3     1  UNL1        0.2526
     16 O          59.9631   90.2918   10.2758 O.3     1  UNL1       -0.4654
     17 C          59.1481   90.6732   11.4759 C.3     1  UNL1        0.2528
     18 C          64.4394   82.4478   12.5399 C.3     1  UNL1        0.1154
     19 C          63.5069   82.4558   13.7147 C.3     1  UNL1        0.1377
     20 C          63.1977   81.0543   13.2788 C.3     1  UNL1        0.0335
     21 C          64.0111   83.8557   13.9050 C.3     1  UNL1        0.0613
     22 C          63.3255   84.4360   15.1065 C.3     1  UNL1        0.1290
     23 C          62.5649   84.8789   16.3211 C.3     1  UNL1        0.0305
     24 C          62.7710   86.2582   16.8733 C.3     1  UNL1        0.0025
     25 C          63.7377   87.1946   16.2109 C.3     1  UNL1        0.0002
     26 C          64.4982   86.7517   14.9963 C.3     1  UNL1        0.0025
     27 C          64.2921   85.3724   14.4441 C.3     1  UNL1        0.0305
     28 O          62.3976   83.3947   15.6586 O.3     1  UNL1       -0.2256
     29 O          62.5097   82.1709   14.7984 O.3     1  UNL1       -0.2251
@<TRIPOS>BOND
     1    12    13    1
     2    13     6    1
     3     6     7   ar
     4     7     8   ar
     5     8     5    1
     6     5     1    1
     7     1     2   am
     8     2     3    2
     9     2    18    1
    10    18    19    1
    11    19    20    1
    12    19    21    1
    13    21    22    1
    14    22    23    1
    15    23    24    1
    16    24    25    1
    17    25    26    1
    18    26    27    1
    19    22    28    1
    20    28    29    1
    21     8     9   ar
    22     9    10   ar
    23    10    14    1
    24    14    15    1
    25    10    11   ar
    26    11    16    1
    27    16    17    1
    28    11     6   ar
    29    29    19    1
    30    27    22    1
    31     1     4    1
@<TRIPOS>MOLECULE
*****
 29 31 0 0 0
SMALL
GASTEIGER

@<TRIPOS>ATOM
      1 N          63.1208   85.5447   12.6450 N.am    1  UNL1       -0.3004
      2 C          64.0331   84.7379   13.5207 C.2     1  UNL1        0.2252
      3 O          64.3196   83.3041   13.1860 O.2     1  UNL1       -0.2750
      4 H          62.9327   86.4858   12.8648 H       1  UNL1        0.1497
      5 C          62.4951   84.9177   11.4345 C.3     1  UNL1        0.1165
      6 C          60.5089   86.0972    8.2075 C.ar    1  UNL1        0.1752
      7 C          61.3640   85.2717    9.1226 C.ar    1  UNL1        0.0376
      8 C          61.6401   85.7433   10.5195 C.ar    1  UNL1        0.0037
      9 C          61.0612   87.0404   11.0013 C.ar    1  UNL1        0.0376
     10 C          60.2061   87.8660   10.0862 C.ar    1  UNL1        0.1752
     11 C          59.9301   87.3944    8.6893 C.ar    1  UNL1        0.2060
     12 C          61.1156   84.5893    6.1806 C.3     1  UNL1        0.2526
     13 O          60.2329   85.6256    6.8106 O.3     1  UNL1       -0.4683
     14 O          59.6273   89.1632   10.5680 O.3     1  UNL1       -0.4683
     15 C          59.5066   89.4301   12.0391 C.3     1  UNL1        0.2526
     16 O          59.0750   88.2200    7.7742 O.3     1  UNL1       -0.4654
     17 C          59.6847   89.3423    6.9878 C.3     1  UNL1        0.2528
     18 C          64.6588   85.3650   14.7313 C.3     1  UNL1        0.1154
     19 C          63.8029   86.0881   15.7284 C.3     1  UNL1        0.1377
     20 C          63.4078   84.7058   16.1562 C.3     1  UNL1        0.0335
     21 C          64.3768   87.3193   15.0922 C.3     1  UNL1        0.0613
     22 C          63.7930   88.5146   15.7855 C.3     1  UNL1        0.1290
     23 C          63.1295   89.6085   16.5685 C.3     1  UNL1        0.0305
     24 C          63.4281   91.0441   16.2526 C.3     1  UNL1        0.0025
     25 C          64.3902   91.3858   15.1537 C.3     1  UNL1        0.0002
     26 C          65.0537   90.2919   14.3707 C.3     1  UNL1        0.0025
     27 C          64.7551   88.8563   14.6866 C.3     1  UNL1        0.0305
     28 O          62.8582   88.0221   16.8502 O.3     1  UNL1       -0.2256
     29 O          62.8643   86.5224   16.8149 O.3     1  UNL1       -0.2251
@<TRIPOS>BOND
     1    12    13    1
     2    13     6    1
     3     6     7   ar
     4     7     8   ar
     5     8     5    1
     6     5     1    1
     7     1     2   am
     8     2     3    2
     9     2    18    1
    10    18    19    1
    11    19    20    1
    12    19    21    1
    13    21    22    1
    14    22    23    1
    15    23    24    1
    16    24    25    1
    17    25    26    1
    18    26    27    1
    19    22    28    1
    20    28    29    1
    21     8     9   ar
    22     9    10   ar
    23    10    14    1
    24    14    15    1
    25    10    11   ar
    26    11    16    1
    27    16    17    1
    28    11     6   ar
    29    29    19    1
    30    27    22    1
    31     1     4    1
