@<TRIPOS>MOLECULE
*****
 35 38 0 0 0
SMALL
GASTEIGER

@<TRIPOS>ATOM
      1 C          63.4495   87.7958   12.7188 C.3     1  UNL1        0.0328
      2 C          62.5543   87.3966   11.5833 C.ar    1  UNL1        0.0002
      3 C          62.2353   85.9491   11.3529 C.ar    1  UNL1        0.0774
      4 N          61.3401   85.5498   10.2176 N.ar    1  UNL1       -0.2457
      5 C          60.7638   86.5981    9.3125 C.ar    1  UNL1        0.0814
      6 C          59.8686   86.1988    8.1771 C.ar    1  UNL1        0.0196
      7 C          59.2923   87.2470    7.2721 C.ar    1  UNL1        0.0082
      8 C          59.6112   88.6945    7.5025 C.ar    1  UNL1        0.0347
      9 BR         59.0348   89.7427    6.5974 Br      1  UNL1       -0.0490
     10 C          60.5064   89.0938    8.6378 C.ar    1  UNL1        0.0083
     11 C          61.0827   88.0456    9.5428 C.ar    1  UNL1        0.0222
     12 C          61.9780   88.4448   10.6783 C.ar    1  UNL1        0.0523
     13 C          62.8117   84.9009   12.2580 C.ar    1  UNL1        0.0173
     14 C          62.3993   84.8452   13.6991 C.ar    1  UNL1        0.0015
     15 C          62.9757   83.7970   14.6041 C.ar    1  UNL1        0.0000
     16 C          63.9644   82.8045   14.0680 C.ar    1  UNL1        0.0000
     17 C          64.3767   82.8602   12.6269 C.ar    1  UNL1        0.0000
     18 C          63.8004   83.9084   11.7219 C.ar    1  UNL1        0.0015
     19 C          62.2969   89.8923   10.9087 C.2     1  UNL1        0.2456
     20 O          61.3107   90.7743   11.6154 O.2     1  UNL1       -0.2702
     21 N          63.6020   90.4578   10.4322 N.am    1  UNL1       -0.3005
     22 H          64.2493   89.8789    9.9684 H       1  UNL1        0.1497
     23 C          63.9209   91.9053   10.6626 C.3     1  UNL1        0.0944
     24 C          65.2161   92.2938   11.3118 C.3     1  UNL1        0.0483
     25 C          66.3394   92.8363   10.4789 C.ar    1  UNL1       -0.0099
     26 C          67.4221   91.9197    9.9913 C.ar    1  UNL1       -0.0034
     27 C          68.5454   92.4623    9.1584 C.ar    1  UNL1       -0.0003
     28 C          68.5860   93.9214    8.8129 C.ar    1  UNL1        0.0008
     29 C          67.5034   94.8380    9.3005 C.ar    1  UNL1        0.0111
     30 C          66.3801   94.2955   10.1335 C.ar    1  UNL1        0.0537
     31 CL         65.2974   95.2120   10.6210 Cl      1  UNL1       -0.0826
     32 C          65.3880   92.1398   12.7940 C.3     1  UNL1        0.0478
     33 C          66.5065   92.8501   13.4971 C.2     1  UNL1        0.0507
     34 O          67.8635   92.2162   13.5789 O.co2   1  UNL1       -0.5492
     35 O          66.2680   94.1944   14.1184 O.co2   1  UNL1       -0.5492
@<TRIPOS>UNITY_ATOM_ATTR
34 1
charge -1
@<TRIPOS>BOND
     1     1     2    1
     2     2     3   ar
     3     3    13    1
     4    13    14   ar
     5    14    15   ar
     6    15    16   ar
     7    16    17   ar
     8    17    18   ar
     9     3     4   ar
    10     4     5   ar
    11     5     6   ar
    12     6     7   ar
    13     7     8   ar
    14     8     9    1
    15     8    10   ar
    16    10    11   ar
    17    11    12   ar
    18    12    19    1
    19    19    20    2
    20    19    21   am
    21    21    23    1
    22    23    24    1
    23    24    32    1
    24    32    33    1
    25    33    34   ar
    26    33    35   ar
    27    24    25    1
    28    25    26   ar
    29    26    27   ar
    30    27    28   ar
    31    28    29   ar
    32    29    30   ar
    33    30    31    1
    34    12     2   ar
    35    30    25   ar
    36    18    13   ar
    37    11     5   ar
    38    21    22    1
@<TRIPOS>MOLECULE
*****
 35 38 0 0 0
SMALL
GASTEIGER

@<TRIPOS>ATOM
      1 C          63.7330   91.7523    9.7011 C.3     1  UNL1        0.0328
      2 C          64.1265   91.7337   11.1485 C.ar    1  UNL1        0.0002
      3 C          65.2506   92.6017   11.6313 C.ar    1  UNL1        0.0774
      4 N          65.6441   92.5831   13.0786 N.ar    1  UNL1       -0.2457
      5 C          64.9135   91.6966   14.0432 C.ar    1  UNL1        0.0814
      6 C          65.3070   91.6780   15.4905 C.ar    1  UNL1        0.0196
      7 C          64.5764   90.7915   16.4550 C.ar    1  UNL1        0.0082
      8 C          63.4523   89.9235   15.9722 C.ar    1  UNL1        0.0347
      9 BR         62.7217   89.0369   16.9368 Br      1  UNL1       -0.0490
     10 C          63.0588   89.9420   14.5249 C.ar    1  UNL1        0.0083
     11 C          63.7894   90.8286   13.5604 C.ar    1  UNL1        0.0222
     12 C          63.3959   90.8472   12.1130 C.ar    1  UNL1        0.0523
     13 C          65.9811   93.4882   10.6667 C.ar    1  UNL1        0.0173
     14 C          65.5389   94.9080   10.4704 C.ar    1  UNL1        0.0015
     15 C          66.2695   95.7945    9.5058 C.ar    1  UNL1        0.0000
     16 C          67.4423   95.2612    8.7377 C.ar    1  UNL1        0.0000
     17 C          67.8845   93.8414    8.9340 C.ar    1  UNL1        0.0000
     18 C          67.1540   92.9549    9.8986 C.ar    1  UNL1        0.0015
     19 C          62.2719   89.9792   11.6301 C.2     1  UNL1        0.2456
     20 O          60.9579   90.5955   11.2512 O.2     1  UNL1       -0.2702
     21 N          62.4619   88.4949   11.5262 N.am    1  UNL1       -0.3005
     22 H          63.3243   88.0904   11.7749 H       1  UNL1        0.1497
     23 C          61.3378   87.6269   11.0434 C.3     1  UNL1        0.0944
     24 C          61.6097   86.5229   10.0650 C.3     1  UNL1        0.0483
     25 C          62.4225   85.3336   10.4831 C.ar    1  UNL1       -0.0099
     26 C          62.4475   84.9106   11.9221 C.ar    1  UNL1       -0.0034
     27 C          63.2602   83.7213   12.3402 C.ar    1  UNL1       -0.0003
     28 C          64.0480   82.9549   11.3194 C.ar    1  UNL1        0.0008
     29 C          64.0231   83.3778    9.8805 C.ar    1  UNL1        0.0111
     30 C          63.2103   84.5672    9.4623 C.ar    1  UNL1        0.0537
     31 CL         63.1853   84.9901    8.0234 Cl      1  UNL1       -0.0826
     32 C          61.0688   86.6083    8.6685 C.3     1  UNL1        0.0478
     33 C          59.8822   87.4778    8.3757 C.2     1  UNL1        0.0507
     34 O          60.0431   88.9676    8.3057 O.co2   1  UNL1       -0.5492
     35 O          58.5347   86.8577    8.1528 O.co2   1  UNL1       -0.5492
@<TRIPOS>UNITY_ATOM_ATTR
34 1
charge -1
@<TRIPOS>BOND
     1     1     2    1
     2     2     3   ar
     3     3    13    1
     4    13    14   ar
     5    14    15   ar
     6    15    16   ar
     7    16    17   ar
     8    17    18   ar
     9     3     4   ar
    10     4     5   ar
    11     5     6   ar
    12     6     7   ar
    13     7     8   ar
    14     8     9    1
    15     8    10   ar
    16    10    11   ar
    17    11    12   ar
    18    12    19    1
    19    19    20    2
    20    19    21   am
    21    21    23    1
    22    23    24    1
    23    24    32    1
    24    32    33    1
    25    33    34   ar
    26    33    35   ar
    27    24    25    1
    28    25    26   ar
    29    26    27   ar
    30    27    28   ar
    31    28    29   ar
    32    29    30   ar
    33    30    31    1
    34    12     2   ar
    35    30    25   ar
    36    18    13   ar
    37    11     5   ar
    38    21    22    1
@<TRIPOS>MOLECULE
*****
 35 38 0 0 0
SMALL
GASTEIGER

@<TRIPOS>ATOM
      1 C          63.7997   91.9616    9.6892 C.3     1  UNL1        0.0328
      2 C          64.2017   91.9085   11.1334 C.ar    1  UNL1        0.0002
      3 C          65.3332   92.7596   11.6288 C.ar    1  UNL1        0.0774
      4 N          65.7351   92.7065   13.0729 N.ar    1  UNL1       -0.2457
      5 C          65.0055   91.8024   14.0218 C.ar    1  UNL1        0.0814
      6 C          65.4075   91.7493   15.4659 C.ar    1  UNL1        0.0196
      7 C          64.6779   90.8452   16.4147 C.ar    1  UNL1        0.0082
      8 C          63.5464   89.9942   15.9194 C.ar    1  UNL1        0.0347
      9 BR         62.8168   89.0900   16.8683 Br      1  UNL1       -0.0490
     10 C          63.1445   90.0472   14.4753 C.ar    1  UNL1        0.0083
     11 C          63.8740   90.9513   13.5265 C.ar    1  UNL1        0.0222
     12 C          63.4721   91.0044   12.0822 C.ar    1  UNL1        0.0523
     13 C          66.0627   93.6637   10.6799 C.ar    1  UNL1        0.0173
     14 C          65.6487   95.0989   10.5434 C.ar    1  UNL1        0.0015
     15 C          66.3782   96.0030    9.5946 C.ar    1  UNL1        0.0000
     16 C          67.5219   95.4719    8.7822 C.ar    1  UNL1        0.0000
     17 C          67.9359   94.0367    8.9187 C.ar    1  UNL1        0.0000
     18 C          67.2064   93.1326    9.8675 C.ar    1  UNL1        0.0015
     19 C          62.3406   90.1533   11.5869 C.2     1  UNL1        0.2456
     20 O          60.9467   90.7061   11.5502 O.2     1  UNL1       -0.2702
     21 N          62.6031   88.7494   11.1283 N.am    1  UNL1       -0.3005
     22 H          63.5180   88.3866   11.1524 H       1  UNL1        0.1497
     23 C          61.4716   87.8984   10.6329 C.3     1  UNL1        0.0944
     24 C          61.6692   86.4235   10.4443 C.3     1  UNL1        0.0483
     25 C          61.7562   85.8493    9.0613 C.ar    1  UNL1       -0.0099
     26 C          63.0103   85.1590    8.6132 C.ar    1  UNL1       -0.0034
     27 C          63.0972   84.5848    7.2302 C.ar    1  UNL1       -0.0003
     28 C          61.9301   84.7010    6.2952 C.ar    1  UNL1        0.0008
     29 C          60.6760   85.3912    6.7432 C.ar    1  UNL1        0.0111
     30 C          60.5890   85.9655    8.1262 C.ar    1  UNL1        0.0537
     31 CL         59.3349   86.6557    8.5742 Cl      1  UNL1       -0.0826
     32 C          61.7800   85.5228   11.6386 C.3     1  UNL1        0.0478
     33 C          63.0560   85.4741   12.4255 C.2     1  UNL1        0.0507
     34 O          63.8928   84.2292   12.4213 O.co2   1  UNL1       -0.5492
     35 O          63.4953   86.6703   13.2168 O.co2   1  UNL1       -0.5492
@<TRIPOS>UNITY_ATOM_ATTR
34 1
charge -1
@<TRIPOS>BOND
     1     1     2    1
     2     2     3   ar
     3     3    13    1
     4    13    14   ar
     5    14    15   ar
     6    15    16   ar
     7    16    17   ar
     8    17    18   ar
     9     3     4   ar
    10     4     5   ar
    11     5     6   ar
    12     6     7   ar
    13     7     8   ar
    14     8     9    1
    15     8    10   ar
    16    10    11   ar
    17    11    12   ar
    18    12    19    1
    19    19    20    2
    20    19    21   am
    21    21    23    1
    22    23    24    1
    23    24    32    1
    24    32    33    1
    25    33    34   ar
    26    33    35   ar
    27    24    25    1
    28    25    26   ar
    29    26    27   ar
    30    27    28   ar
    31    28    29   ar
    32    29    30   ar
    33    30    31    1
    34    12     2   ar
    35    30    25   ar
    36    18    13   ar
    37    11     5   ar
    38    21    22    1
@<TRIPOS>MOLECULE
*****
 35 38 0 0 0
SMALL
GASTEIGER

@<TRIPOS>ATOM
      1 C          63.3193   87.3611   12.6984 C.3     1  UNL1        0.0328
      2 C          62.4776   87.0657   11.4924 C.ar    1  UNL1        0.0002
      3 C          62.2406   85.6452   11.0729 C.ar    1  UNL1        0.0774
      4 N          61.3989   85.3498    9.8670 N.ar    1  UNL1       -0.2457
      5 C          60.7943   86.4750    9.0805 C.ar    1  UNL1        0.0814
      6 C          59.9526   86.1796    7.8745 C.ar    1  UNL1        0.0196
      7 C          59.3480   87.3047    7.0881 C.ar    1  UNL1        0.0082
      8 C          59.5850   88.7252    7.5076 C.ar    1  UNL1        0.0347
      9 BR         58.9803   89.8503    6.7211 Br      1  UNL1       -0.0490
     10 C          60.4266   89.0206    8.7136 C.ar    1  UNL1        0.0083
     11 C          61.0313   87.8955    9.5000 C.ar    1  UNL1        0.0222
     12 C          61.8730   88.1909   10.7060 C.ar    1  UNL1        0.0523
     13 C          62.8453   84.5201   11.8594 C.ar    1  UNL1        0.0173
     14 C          63.8046   83.5745   11.1995 C.ar    1  UNL1        0.0015
     15 C          64.4092   82.4494   11.9860 C.ar    1  UNL1        0.0000
     16 C          64.0545   82.2700   13.4324 C.ar    1  UNL1        0.0000
     17 C          63.0953   83.2156   14.0923 C.ar    1  UNL1        0.0000
     18 C          62.4906   84.3407   13.3058 C.ar    1  UNL1        0.0015
     19 C          62.1100   89.6114   11.1255 C.2     1  UNL1        0.2456
     20 O          60.9914   90.4143   11.7203 O.2     1  UNL1       -0.2702
     21 N          63.4658   90.2289   10.9501 N.am    1  UNL1       -0.3005
     22 H          64.2000   89.7019   10.5597 H       1  UNL1        0.1497
     23 C          63.7028   91.6494   11.3696 C.3     1  UNL1        0.0944
     24 C          65.1027   92.1464   11.5775 C.3     1  UNL1        0.0483
     25 C          65.6197   92.3723   12.9673 C.ar    1  UNL1       -0.0099
     26 C          66.4498   93.5842   13.2710 C.ar    1  UNL1       -0.0034
     27 C          66.9668   93.8101   14.6608 C.ar    1  UNL1       -0.0003
     28 C          66.6538   92.8241   15.7470 C.ar    1  UNL1        0.0008
     29 C          65.8238   91.6122   15.4433 C.ar    1  UNL1        0.0111
     30 C          65.3067   91.3862   14.0535 C.ar    1  UNL1        0.0537
     31 CL         64.4766   90.1743   13.7498 Cl      1  UNL1       -0.0826
     32 C          65.9856   92.4175   10.3955 C.3     1  UNL1        0.0478
     33 C          66.5016   93.8039   10.1472 C.2     1  UNL1        0.0507
     34 O          65.5728   94.9780   10.2414 O.co2   1  UNL1       -0.5492
     35 O          67.9464   94.0162    9.8046 O.co2   1  UNL1       -0.5492
@<TRIPOS>UNITY_ATOM_ATTR
34 1
charge -1
@<TRIPOS>BOND
     1     1     2    1
     2     2     3   ar
     3     3    13    1
     4    13    14   ar
     5    14    15   ar
     6    15    16   ar
     7    16    17   ar
     8    17    18   ar
     9     3     4   ar
    10     4     5   ar
    11     5     6   ar
    12     6     7   ar
    13     7     8   ar
    14     8     9    1
    15     8    10   ar
    16    10    11   ar
    17    11    12   ar
    18    12    19    1
    19    19    20    2
    20    19    21   am
    21    21    23    1
    22    23    24    1
    23    24    32    1
    24    32    33    1
    25    33    34   ar
    26    33    35   ar
    27    24    25    1
    28    25    26   ar
    29    26    27   ar
    30    27    28   ar
    31    28    29   ar
    32    29    30   ar
    33    30    31    1
    34    12     2   ar
    35    30    25   ar
    36    18    13   ar
    37    11     5   ar
    38    21    22    1
@<TRIPOS>MOLECULE
*****
 35 38 0 0 0
SMALL
GASTEIGER

@<TRIPOS>ATOM
      1 C          61.6826   87.2337   11.9545 C.3     1  UNL1        0.0328
      2 C          62.3257   88.5205   11.5295 C.ar    1  UNL1        0.0002
      3 C          62.0490   89.0830   10.1668 C.ar    1  UNL1        0.0774
      4 N          62.6921   90.3697    9.7417 N.ar    1  UNL1       -0.2457
      5 C          63.6119   91.0941   10.6794 C.ar    1  UNL1        0.0814
      6 C          64.2549   92.3808   10.2544 C.ar    1  UNL1        0.0196
      7 C          65.1747   93.1052   11.1921 C.ar    1  UNL1        0.0082
      8 C          65.4514   92.5427   12.5549 C.ar    1  UNL1        0.0347
      9 BR         66.3712   93.2671   13.4926 Br      1  UNL1       -0.0490
     10 C          64.8083   91.2560   12.9799 C.ar    1  UNL1        0.0083
     11 C          63.8886   90.5317   12.0422 C.ar    1  UNL1        0.0222
     12 C          63.2454   89.2449   12.4672 C.ar    1  UNL1        0.0523
     13 C          61.1292   88.3586    9.2290 C.ar    1  UNL1        0.0173
     14 C          60.0287   89.1034    8.5333 C.ar    1  UNL1        0.0015
     15 C          59.1090   88.3790    7.5957 C.ar    1  UNL1        0.0000
     16 C          59.2897   86.9098    7.3537 C.ar    1  UNL1        0.0000
     17 C          60.3902   86.1649    8.0494 C.ar    1  UNL1        0.0000
     18 C          61.3099   86.8893    8.9870 C.ar    1  UNL1        0.0015
     19 C          63.5221   88.6824   13.8300 C.2     1  UNL1        0.2456
     20 O          63.0749   89.4263   15.0533 O.2     1  UNL1       -0.2702
     21 N          64.2461   87.3761   13.9694 N.am    1  UNL1       -0.3005
     22 H          64.5396   86.8878   13.1665 H       1  UNL1        0.1497
     23 C          64.5227   86.8136   15.3322 C.3     1  UNL1        0.0944
     24 C          63.8461   85.5498   15.7735 C.3     1  UNL1        0.0483
     25 C          63.6404   84.4292   14.7978 C.ar    1  UNL1       -0.0099
     26 C          62.2874   83.7972   14.6559 C.ar    1  UNL1       -0.0034
     27 C          62.0816   82.6767   13.6802 C.ar    1  UNL1       -0.0003
     28 C          63.2288   82.1881   12.8464 C.ar    1  UNL1        0.0008
     29 C          64.5817   82.8200   12.9882 C.ar    1  UNL1        0.0111
     30 C          64.7875   83.9406   13.9640 C.ar    1  UNL1        0.0537
     31 CL         66.1405   84.5725   14.1058 Cl      1  UNL1       -0.0826
     32 C          63.3753   85.4064   17.1904 C.3     1  UNL1        0.0478
     33 C          62.3089   86.3174   17.7222 C.2     1  UNL1        0.0507
     34 O          62.5355   87.0728   18.9982 O.co2   1  UNL1       -0.5492
     35 O          61.0159   86.4731   16.9780 O.co2   1  UNL1       -0.5492
@<TRIPOS>UNITY_ATOM_ATTR
34 1
charge -1
@<TRIPOS>BOND
     1     1     2    1
     2     2     3   ar
     3     3    13    1
     4    13    14   ar
     5    14    15   ar
     6    15    16   ar
     7    16    17   ar
     8    17    18   ar
     9     3     4   ar
    10     4     5   ar
    11     5     6   ar
    12     6     7   ar
    13     7     8   ar
    14     8     9    1
    15     8    10   ar
    16    10    11   ar
    17    11    12   ar
    18    12    19    1
    19    19    20    2
    20    19    21   am
    21    21    23    1
    22    23    24    1
    23    24    32    1
    24    32    33    1
    25    33    34   ar
    26    33    35   ar
    27    24    25    1
    28    25    26   ar
    29    26    27   ar
    30    27    28   ar
    31    28    29   ar
    32    29    30   ar
    33    30    31    1
    34    12     2   ar
    35    30    25   ar
    36    18    13   ar
    37    11     5   ar
    38    21    22    1
@<TRIPOS>MOLECULE
*****
 35 38 0 0 0
SMALL
GASTEIGER

@<TRIPOS>ATOM
      1 C          61.7247   90.3620   10.6145 C.3     1  UNL1        0.0328
      2 C          62.0408   88.9763   11.0943 C.ar    1  UNL1        0.0002
      3 C          61.4587   87.7874   10.3890 C.ar    1  UNL1        0.0774
      4 N          61.7747   86.4018   10.8687 N.ar    1  UNL1       -0.2457
      5 C          62.6730   86.2051   12.0539 C.ar    1  UNL1        0.0814
      6 C          62.9891   84.8195   12.5336 C.ar    1  UNL1        0.0196
      7 C          63.8873   84.6229   13.7187 C.ar    1  UNL1        0.0082
      8 C          64.4694   85.8118   14.4241 C.ar    1  UNL1        0.0347
      9 BR         65.3677   85.6151   15.6092 Br      1  UNL1       -0.0490
     10 C          64.1534   87.1974   13.9443 C.ar    1  UNL1        0.0083
     11 C          63.2551   87.3940   12.7592 C.ar    1  UNL1        0.0222
     12 C          62.9390   88.7797   12.2794 C.ar    1  UNL1        0.0523
     13 C          60.5604   87.9841    9.2038 C.ar    1  UNL1        0.0173
     14 C          59.8252   86.8153    8.6178 C.ar    1  UNL1        0.0015
     15 C          58.9270   87.0121    7.4327 C.ar    1  UNL1        0.0000
     16 C          58.7640   88.3776    6.8336 C.ar    1  UNL1        0.0000
     17 C          59.4993   89.5463    7.4196 C.ar    1  UNL1        0.0000
     18 C          60.3974   89.3496    8.6047 C.ar    1  UNL1        0.0015
     19 C          63.5212   89.9686   12.9847 C.2     1  UNL1        0.2456
     20 O          63.0323   90.3428   14.3525 O.2     1  UNL1       -0.2702
     21 N          64.5923   90.7834   12.3222 N.am    1  UNL1       -0.3005
     22 H          64.9132   90.5379   11.4245 H       1  UNL1        0.1497
     23 C          65.1745   91.9724   13.0275 C.3     1  UNL1        0.0944
     24 C          66.6230   92.3169   12.8462 C.3     1  UNL1        0.0483
     25 C          67.1202   92.7896   11.5123 C.ar    1  UNL1       -0.0099
     26 C          67.9136   91.8652   10.6370 C.ar    1  UNL1       -0.0034
     27 C          68.4108   92.3379    9.3031 C.ar    1  UNL1       -0.0003
     28 C          68.1145   93.7350    8.8444 C.ar    1  UNL1        0.0008
     29 C          67.3211   94.6593    9.7195 C.ar    1  UNL1        0.0111
     30 C          66.8239   94.1866   11.0535 C.ar    1  UNL1        0.0537
     31 CL         66.0304   95.1110   11.9287 Cl      1  UNL1       -0.0826
     32 C          67.5744   92.1888   13.9988 C.3     1  UNL1        0.0478
     33 C          67.3200   92.9449   15.2689 C.2     1  UNL1        0.0507
     34 O          68.2612   94.0322   15.6959 O.co2   1  UNL1       -0.5492
     35 O          66.1245   92.6140   16.1122 O.co2   1  UNL1       -0.5492
@<TRIPOS>UNITY_ATOM_ATTR
34 1
charge -1
@<TRIPOS>BOND
     1     1     2    1
     2     2     3   ar
     3     3    13    1
     4    13    14   ar
     5    14    15   ar
     6    15    16   ar
     7    16    17   ar
     8    17    18   ar
     9     3     4   ar
    10     4     5   ar
    11     5     6   ar
    12     6     7   ar
    13     7     8   ar
    14     8     9    1
    15     8    10   ar
    16    10    11   ar
    17    11    12   ar
    18    12    19    1
    19    19    20    2
    20    19    21   am
    21    21    23    1
    22    23    24    1
    23    24    32    1
    24    32    33    1
    25    33    34   ar
    26    33    35   ar
    27    24    25    1
    28    25    26   ar
    29    26    27   ar
    30    27    28   ar
    31    28    29   ar
    32    29    30   ar
    33    30    31    1
    34    12     2   ar
    35    30    25   ar
    36    18    13   ar
    37    11     5   ar
    38    21    22    1
@<TRIPOS>MOLECULE
*****
 35 38 0 0 0
SMALL
GASTEIGER

@<TRIPOS>ATOM
      1 C          65.8539   92.0314   13.1177 C.3     1  UNL1        0.0328
      2 C          64.8058   91.6564   12.1122 C.ar    1  UNL1        0.0002
      3 C          64.7439   92.3673   10.7928 C.ar    1  UNL1        0.0774
      4 N          63.6959   91.9924    9.7873 N.ar    1  UNL1       -0.2457
      5 C          62.7099   90.9064   10.1011 C.ar    1  UNL1        0.0814
      6 C          61.6619   90.5314    9.0955 C.ar    1  UNL1        0.0196
      7 C          60.6759   89.4455    9.4094 C.ar    1  UNL1        0.0082
      8 C          60.7379   88.7345   10.7287 C.ar    1  UNL1        0.0347
      9 BR         59.7518   87.6485   11.0425 Br      1  UNL1       -0.0490
     10 C          61.7858   89.1095   11.7342 C.ar    1  UNL1        0.0083
     11 C          62.7718   90.1954   11.4204 C.ar    1  UNL1        0.0222
     12 C          63.8199   90.5704   12.4260 C.ar    1  UNL1        0.0523
     13 C          65.7299   93.4533   10.4790 C.ar    1  UNL1        0.0173
     14 C          65.4368   94.8700   10.8754 C.ar    1  UNL1        0.0015
     15 C          66.4228   95.9559   10.5616 C.ar    1  UNL1        0.0000
     16 C          67.7020   95.6251    9.8514 C.ar    1  UNL1        0.0000
     17 C          67.9952   94.2085    9.4551 C.ar    1  UNL1        0.0000
     18 C          67.0091   93.1226    9.7689 C.ar    1  UNL1        0.0015
     19 C          63.8818   89.8595   13.7453 C.2     1  UNL1        0.2456
     20 O          63.5676   90.5996   15.0116 O.2     1  UNL1       -0.2702
     21 N          64.2580   88.4083   13.7984 N.am    1  UNL1       -0.3005
     22 H          64.4642   87.9226   12.9673 H       1  UNL1        0.1497
     23 C          64.3199   87.6974   15.1177 C.3     1  UNL1        0.0944
     24 C          63.8682   86.2709   15.2230 C.3     1  UNL1        0.0483
     25 C          63.7099   85.4410   13.9836 C.ar    1  UNL1       -0.0099
     26 C          62.5782   85.7140   13.0376 C.ar    1  UNL1       -0.0034
     27 C          62.4200   84.8841   11.7982 C.ar    1  UNL1       -0.0003
     28 C          63.3933   83.7811   11.5047 C.ar    1  UNL1        0.0008
     29 C          64.5250   83.5081   12.4506 C.ar    1  UNL1        0.0111
     30 C          64.6833   84.3381   13.6901 C.ar    1  UNL1        0.0537
     31 CL         65.8149   84.0651   14.6361 Cl      1  UNL1       -0.0826
     32 C          63.5747   85.6744   16.5676 C.3     1  UNL1        0.0478
     33 C          62.4700   86.2363   17.4124 C.2     1  UNL1        0.0507
     34 O          62.7814   86.8399   18.7499 O.co2   1  UNL1       -0.5492
     35 O          61.0538   86.1947   16.9198 O.co2   1  UNL1       -0.5492
@<TRIPOS>UNITY_ATOM_ATTR
34 1
charge -1
@<TRIPOS>BOND
     1     1     2    1
     2     2     3   ar
     3     3    13    1
     4    13    14   ar
     5    14    15   ar
     6    15    16   ar
     7    16    17   ar
     8    17    18   ar
     9     3     4   ar
    10     4     5   ar
    11     5     6   ar
    12     6     7   ar
    13     7     8   ar
    14     8     9    1
    15     8    10   ar
    16    10    11   ar
    17    11    12   ar
    18    12    19    1
    19    19    20    2
    20    19    21   am
    21    21    23    1
    22    23    24    1
    23    24    32    1
    24    32    33    1
    25    33    34   ar
    26    33    35   ar
    27    24    25    1
    28    25    26   ar
    29    26    27   ar
    30    27    28   ar
    31    28    29   ar
    32    29    30   ar
    33    30    31    1
    34    12     2   ar
    35    30    25   ar
    36    18    13   ar
    37    11     5   ar
    38    21    22    1
@<TRIPOS>MOLECULE
*****
 35 38 0 0 0
SMALL
GASTEIGER

@<TRIPOS>ATOM
      1 C          64.2311   87.6299   13.8832 C.3     1  UNL1        0.0328
      2 C          63.3973   88.2561   12.8048 C.ar    1  UNL1        0.0002
      3 C          63.3632   89.7482   12.6543 C.ar    1  UNL1        0.0774
      4 N          62.5295   90.3744   11.5761 N.ar    1  UNL1       -0.2457
      5 C          61.7297   89.5085   10.6483 C.ar    1  UNL1        0.0814
      6 C          60.8960   90.1347    9.5700 C.ar    1  UNL1        0.0196
      7 C          60.0963   89.2689    8.6423 C.ar    1  UNL1        0.0082
      8 C          60.1304   87.7769    8.7928 C.ar    1  UNL1        0.0347
      9 BR         59.3306   86.9110    7.8649 Br      1  UNL1       -0.0490
     10 C          60.9641   87.1507    9.8710 C.ar    1  UNL1        0.0083
     11 C          61.7638   88.0165   10.7988 C.ar    1  UNL1        0.0222
     12 C          62.5976   87.3903   11.8771 C.ar    1  UNL1        0.0523
     13 C          64.1630   90.6140   13.5822 C.ar    1  UNL1        0.0173
     14 C          63.7800   90.7170   15.0288 C.ar    1  UNL1        0.0015
     15 C          64.5797   91.5828   15.9565 C.ar    1  UNL1        0.0000
     16 C          65.7625   92.3457   15.4377 C.ar    1  UNL1        0.0000
     17 C          66.1455   92.2427   13.9911 C.ar    1  UNL1        0.0000
     18 C          65.3457   91.3769   13.0633 C.ar    1  UNL1        0.0015
     19 C          62.6317   85.8983   12.0276 C.2     1  UNL1        0.2456
     20 O          63.0030   85.0348   10.8586 O.2     1  UNL1       -0.2702
     21 N          62.2944   85.2697   13.3472 N.am    1  UNL1       -0.3005
     22 H          62.0507   85.8364   14.1144 H       1  UNL1        0.1497
     23 C          62.3285   83.7776   13.4977 C.3     1  UNL1        0.0944
     24 C          63.4982   82.9976   12.9750 C.3     1  UNL1        0.0483
     25 C          63.2701   81.7831   12.1247 C.ar    1  UNL1       -0.0099
     26 C          63.5597   81.8322   10.6537 C.ar    1  UNL1       -0.0034
     27 C          63.3316   80.6177    9.8035 C.ar    1  UNL1       -0.0003
     28 C          62.8138   79.3541   10.4242 C.ar    1  UNL1        0.0008
     29 C          62.5242   79.3050   11.8951 C.ar    1  UNL1        0.0111
     30 C          62.7523   80.5195   12.7454 C.ar    1  UNL1        0.0537
     31 CL         62.4627   80.4704   14.2163 Cl      1  UNL1       -0.0826
     32 C          64.8960   83.4321   13.3025 C.3     1  UNL1        0.0478
     33 C          65.1462   84.3313   14.4766 C.2     1  UNL1        0.0507
     34 O          66.3972   85.1570   14.5358 O.co2   1  UNL1       -0.5492
     35 O          64.1455   84.4049   15.5916 O.co2   1  UNL1       -0.5492
@<TRIPOS>UNITY_ATOM_ATTR
34 1
charge -1
@<TRIPOS>BOND
     1     1     2    1
     2     2     3   ar
     3     3    13    1
     4    13    14   ar
     5    14    15   ar
     6    15    16   ar
     7    16    17   ar
     8    17    18   ar
     9     3     4   ar
    10     4     5   ar
    11     5     6   ar
    12     6     7   ar
    13     7     8   ar
    14     8     9    1
    15     8    10   ar
    16    10    11   ar
    17    11    12   ar
    18    12    19    1
    19    19    20    2
    20    19    21   am
    21    21    23    1
    22    23    24    1
    23    24    32    1
    24    32    33    1
    25    33    34   ar
    26    33    35   ar
    27    24    25    1
    28    25    26   ar
    29    26    27   ar
    30    27    28   ar
    31    28    29   ar
    32    29    30   ar
    33    30    31    1
    34    12     2   ar
    35    30    25   ar
    36    18    13   ar
    37    11     5   ar
    38    21    22    1
@<TRIPOS>MOLECULE
*****
 35 38 0 0 0
SMALL
GASTEIGER

@<TRIPOS>ATOM
      1 C          64.8178   88.2624   14.7048 C.3     1  UNL1        0.0328
      2 C          64.0214   88.7862   13.5466 C.ar    1  UNL1        0.0002
      3 C          63.9933   90.2584   13.2604 C.ar    1  UNL1        0.0774
      4 N          63.1970   90.7822   12.1022 N.ar    1  UNL1       -0.2457
      5 C          62.4288   89.8339   11.2301 C.ar    1  UNL1        0.0814
      6 C          61.6325   90.3577   10.0719 C.ar    1  UNL1        0.0196
      7 C          60.8643   89.4093    9.1998 C.ar    1  UNL1        0.0082
      8 C          60.8924   87.9372    9.4860 C.ar    1  UNL1        0.0347
      9 BR         60.1242   86.9888    8.6139 Br      1  UNL1       -0.0490
     10 C          61.6887   87.4133   10.6442 C.ar    1  UNL1        0.0083
     11 C          62.4569   88.3617   11.5163 C.ar    1  UNL1        0.0222
     12 C          63.2532   87.8379   12.6745 C.ar    1  UNL1        0.0523
     13 C          64.7615   91.2068   14.1325 C.ar    1  UNL1        0.0173
     14 C          64.3918   91.3636   15.5777 C.ar    1  UNL1        0.0015
     15 C          65.1600   92.3119   16.4497 C.ar    1  UNL1        0.0000
     16 C          66.2980   93.1034   15.8765 C.ar    1  UNL1        0.0000
     17 C          66.6677   92.9466   14.4313 C.ar    1  UNL1        0.0000
     18 C          65.8995   91.9983   13.5593 C.ar    1  UNL1        0.0015
     19 C          63.2813   86.3657   12.9607 C.2     1  UNL1        0.2456
     20 O          62.2706   85.4585   12.3242 O.2     1  UNL1       -0.2702
     21 N          64.3203   85.8008   13.8835 N.am    1  UNL1       -0.3005
     22 H          64.9837   86.3962   14.3013 H       1  UNL1        0.1497
     23 C          64.3484   84.3286   14.1697 C.3     1  UNL1        0.0944
     24 C          63.0679   83.5886   14.4199 C.3     1  UNL1        0.0483
     25 C          62.8079   82.2840   13.7270 C.ar    1  UNL1       -0.0099
     26 C          61.9123   81.2623   14.3629 C.ar    1  UNL1       -0.0034
     27 C          61.6524   79.9577   13.6699 C.ar    1  UNL1       -0.0003
     28 C          62.2879   79.6746   12.3410 C.ar    1  UNL1        0.0008
     29 C          63.1835   80.6961   11.7051 C.ar    1  UNL1        0.0111
     30 C          63.4435   82.0009   12.3981 C.ar    1  UNL1        0.0537
     31 CL         64.3390   83.0224   11.7622 Cl      1  UNL1       -0.0826
     32 C          62.0473   84.1533   15.3631 C.3     1  UNL1        0.0478
     33 C          62.4481   85.1933   16.3669 C.2     1  UNL1        0.0507
     34 O          61.3990   86.0173   17.0528 O.co2   1  UNL1       -0.5492
     35 O          63.8980   85.4093   16.6849 O.co2   1  UNL1       -0.5492
@<TRIPOS>UNITY_ATOM_ATTR
34 1
charge -1
@<TRIPOS>BOND
     1     1     2    1
     2     2     3   ar
     3     3    13    1
     4    13    14   ar
     5    14    15   ar
     6    15    16   ar
     7    16    17   ar
     8    17    18   ar
     9     3     4   ar
    10     4     5   ar
    11     5     6   ar
    12     6     7   ar
    13     7     8   ar
    14     8     9    1
    15     8    10   ar
    16    10    11   ar
    17    11    12   ar
    18    12    19    1
    19    19    20    2
    20    19    21   am
    21    21    23    1
    22    23    24    1
    23    24    32    1
    24    32    33    1
    25    33    34   ar
    26    33    35   ar
    27    24    25    1
    28    25    26   ar
    29    26    27   ar
    30    27    28   ar
    31    28    29   ar
    32    29    30   ar
    33    30    31    1
    34    12     2   ar
    35    30    25   ar
    36    18    13   ar
    37    11     5   ar
    38    21    22    1
