@<TRIPOS>MOLECULE
*****
 32 36 0 0 0
SMALL
GASTEIGER

@<TRIPOS>ATOM
      1 N          63.5615   90.3855   12.6406 N.pl3   1  UNL1       -0.3046
      2 C          63.7055   88.9059   12.8402 C.3     1  UNL1        0.1081
      3 C          62.7202   87.9650   12.2124 C.3     1  UNL1        0.0938
      4 N          61.5910   88.5038   11.3850 N.3     1  UNL1       -0.2695
      5 C          61.4470   89.9834   11.1854 C.3     1  UNL1        0.0938
      6 C          62.4322   90.9243   11.8131 C.3     1  UNL1        0.1081
      7 C          67.2855   95.4794    9.9139 C.3     1  UNL1        0.0521
      8 C          66.6008   94.4411   10.7525 C.ar    1  UNL1        0.0593
      9 C          65.6156   93.5002   10.1248 C.ar    1  UNL1        0.0148
     10 C          64.9309   92.4620   10.9634 C.ar    1  UNL1        0.0039
     11 C          65.2314   92.3646   12.4297 C.ar    1  UNL1        0.0310
     12 C          64.5467   91.3264   13.2683 C.ar    1  UNL1        0.0493
     13 C          64.8472   91.2290   14.7346 C.ar    1  UNL1        0.0146
     14 C          65.8324   92.1699   15.3624 C.ar    1  UNL1        0.0028
     15 C          66.5171   93.2082   14.5238 C.ar    1  UNL1        0.0192
     16 C          66.2166   93.3055   13.0574 C.ar    1  UNL1        0.0821
     17 N          66.9013   94.3438   12.2188 N.ar    1  UNL1       -0.2496
     18 C          60.6057   87.5629   10.7572 C.3     1  UNL1        0.0769
     19 C          61.0299   86.6822    9.6195 C.3     1  UNL1        0.0437
     20 C          61.9744   85.5431    9.8646 C.ar    1  UNL1       -0.0196
     21 C          63.0169   85.1998    8.8421 C.ar    1  UNL1       -0.0041
     22 C          63.9614   84.0607    9.0872 C.ar    1  UNL1        0.0010
     23 C          63.8636   83.2647   10.3548 C.ar    1  UNL1        0.0149
     24 C          62.8212   83.6079   11.3773 C.ar    1  UNL1        0.0550
     25 C          61.8766   84.7471   11.1322 C.ar    1  UNL1        0.0107
     26 N          62.7233   82.8120   12.6449 N.am    1  UNL1       -0.2416
     27 C          62.7056   81.3156   12.7473 C.3     1  UNL1        0.1210
     28 C          62.5973   80.9515   14.1984 C.3     1  UNL1        0.1128
     29 N          62.5481   82.2229   14.9929 N.am    1  UNL1       -0.2867
     30 C          62.6259   83.3727   14.0328 C.2     1  UNL1        0.3078
     31 O          62.6093   84.8278   14.3967 O.2     1  UNL1       -0.2522
     32 H          62.4771   82.2908   15.9725 H       1  UNL1        0.1510
@<TRIPOS>BOND
     1     7     8    1
     2     8     9   ar
     3     9    10   ar
     4    10    11   ar
     5    11    12   ar
     6    12     1    1
     7     1     2    1
     8     2     3    1
     9     3     4    1
    10     4    18    1
    11    18    19    1
    12    19    20    1
    13    20    21   ar
    14    21    22   ar
    15    22    23   ar
    16    23    24   ar
    17    24    26    1
    18    26    27    1
    19    27    28    1
    20    28    29    1
    21    29    30   am
    22    30    31    2
    23    24    25   ar
    24     4     5    1
    25     5     6    1
    26    12    13   ar
    27    13    14   ar
    28    14    15   ar
    29    15    16   ar
    30    16    17   ar
    31    17     8   ar
    32    16    11   ar
    33     6     1    1
    34    25    20   ar
    35    30    26   am
    36    29    32    1
@<TRIPOS>MOLECULE
*****
 32 36 0 0 0
SMALL
GASTEIGER

@<TRIPOS>ATOM
      1 N          63.5527   91.2007   11.2909 N.pl3   1  UNL1       -0.3046
      2 C          63.1703   90.3634   12.4752 C.3     1  UNL1        0.1081
      3 C          62.0472   89.3753   12.3639 C.3     1  UNL1        0.0938
      4 N          61.3066   89.2245   11.0682 N.3     1  UNL1       -0.2695
      5 C          61.6890   90.0618    9.8839 C.3     1  UNL1        0.0938
      6 C          62.8120   91.0499    9.9952 C.3     1  UNL1        0.1081
      7 C          68.0901   92.3070   16.3345 C.3     1  UNL1        0.0521
      8 C          67.2365   92.2774   15.1014 C.ar    1  UNL1        0.0593
      9 C          66.1135   91.2893   14.9902 C.ar    1  UNL1        0.0148
     10 C          65.2599   91.2598   13.7571 C.ar    1  UNL1        0.0039
     11 C          65.5293   92.2183   12.6352 C.ar    1  UNL1        0.0310
     12 C          64.6758   92.1888   11.4021 C.ar    1  UNL1        0.0493
     13 C          64.9452   93.1473   10.2803 C.ar    1  UNL1        0.0146
     14 C          66.0683   94.1355   10.3916 C.ar    1  UNL1        0.0028
     15 C          66.9219   94.1650   11.6247 C.ar    1  UNL1        0.0192
     16 C          66.6524   93.2064   12.7465 C.ar    1  UNL1        0.0821
     17 N          67.5060   93.2360   13.9796 N.ar    1  UNL1       -0.2496
     18 C          60.1835   88.2364   10.9569 C.3     1  UNL1        0.0769
     19 C          60.2148   87.1824    9.8901 C.3     1  UNL1        0.0437
     20 C          61.3348   86.1853    9.8535 C.ar    1  UNL1       -0.0196
     21 C          62.0756   85.9360    8.5733 C.ar    1  UNL1       -0.0041
     22 C          63.1956   84.9389    8.5367 C.ar    1  UNL1        0.0010
     23 C          63.5748   84.1910    9.7805 C.ar    1  UNL1        0.0149
     24 C          62.8341   84.4404   11.0608 C.ar    1  UNL1        0.0550
     25 C          61.7140   85.4375   11.0973 C.ar    1  UNL1        0.0107
     26 N          63.2133   83.6926   12.3046 N.am    1  UNL1       -0.2416
     27 C          63.2995   82.2017   12.4452 C.3     1  UNL1        0.1210
     28 C          63.7124   81.8920   13.8537 C.3     1  UNL1        0.1128
     29 N          63.8813   83.1917   14.5835 N.am    1  UNL1       -0.2867
     30 C          63.5728   84.3044   13.6261 C.2     1  UNL1        0.3078
     31 O          63.6162   85.7714   13.9358 O.2     1  UNL1       -0.2522
     32 H          64.1478   83.2960   15.5255 H       1  UNL1        0.1510
@<TRIPOS>BOND
     1     7     8    1
     2     8     9   ar
     3     9    10   ar
     4    10    11   ar
     5    11    12   ar
     6    12     1    1
     7     1     2    1
     8     2     3    1
     9     3     4    1
    10     4    18    1
    11    18    19    1
    12    19    20    1
    13    20    21   ar
    14    21    22   ar
    15    22    23   ar
    16    23    24   ar
    17    24    26    1
    18    26    27    1
    19    27    28    1
    20    28    29    1
    21    29    30   am
    22    30    31    2
    23    24    25   ar
    24     4     5    1
    25     5     6    1
    26    12    13   ar
    27    13    14   ar
    28    14    15   ar
    29    15    16   ar
    30    16    17   ar
    31    17     8   ar
    32    16    11   ar
    33     6     1    1
    34    25    20   ar
    35    30    26   am
    36    29    32    1
@<TRIPOS>MOLECULE
*****
 32 36 0 0 0
SMALL
GASTEIGER

@<TRIPOS>ATOM
      1 N          62.9732   90.3676   11.8181 N.pl3   1  UNL1       -0.3046
      2 C          61.6897   89.9827   12.4923 C.3     1  UNL1        0.1081
      3 C          60.5772   89.3706   11.6937 C.3     1  UNL1        0.0938
      4 N          60.7482   89.1435   10.2209 N.3     1  UNL1       -0.2695
      5 C          62.0317   89.5283    9.5467 C.3     1  UNL1        0.0938
      6 C          63.1442   90.1404   10.3453 C.3     1  UNL1        0.1081
      7 C          67.2662   95.5272   10.3357 C.3     1  UNL1        0.0521
      8 C          66.4710   94.3903   10.9059 C.ar    1  UNL1        0.0593
      9 C          65.3586   93.7783   10.1074 C.ar    1  UNL1        0.0148
     10 C          64.5634   92.6414   10.6776 C.ar    1  UNL1        0.0039
     11 C          64.8808   92.1165   12.0465 C.ar    1  UNL1        0.0310
     12 C          64.0856   90.9796   12.6167 C.ar    1  UNL1        0.0493
     13 C          64.4029   90.4548   13.9856 C.ar    1  UNL1        0.0146
     14 C          65.5155   91.0668   14.7842 C.ar    1  UNL1        0.0028
     15 C          66.3106   92.2037   14.2140 C.ar    1  UNL1        0.0192
     16 C          65.9932   92.7286   12.8451 C.ar    1  UNL1        0.0821
     17 N          66.7884   93.8655   12.2748 N.ar    1  UNL1       -0.2496
     18 C          59.6357   88.5314    9.4222 C.3     1  UNL1        0.0769
     19 C          59.5689   87.0431    9.2472 C.3     1  UNL1        0.0437
     20 C          60.8331   86.2391    9.1742 C.ar    1  UNL1       -0.0196
     21 C          61.4346   85.9068    7.8409 C.ar    1  UNL1       -0.0041
     22 C          62.6988   85.1028    7.7678 C.ar    1  UNL1        0.0010
     23 C          63.3614   84.6309    9.0281 C.ar    1  UNL1        0.0149
     24 C          62.7599   84.9632   10.3614 C.ar    1  UNL1        0.0550
     25 C          61.4956   85.7673   10.4344 C.ar    1  UNL1        0.0107
     26 N          63.4224   84.4914   11.6217 N.am    1  UNL1       -0.2416
     27 C          63.3051   85.1323   12.9728 C.3     1  UNL1        0.1210
     28 C          64.1288   84.3329   13.9383 C.3     1  UNL1        0.1128
     29 N          64.7553   83.1977   13.1839 N.am    1  UNL1       -0.2867
     30 C          64.3187   83.2957   11.7522 C.2     1  UNL1        0.3078
     31 O          64.7098   82.3620   10.6454 O.2     1  UNL1       -0.2522
     32 H          65.3489   82.5093   13.5621 H       1  UNL1        0.1510
@<TRIPOS>BOND
     1     7     8    1
     2     8     9   ar
     3     9    10   ar
     4    10    11   ar
     5    11    12   ar
     6    12     1    1
     7     1     2    1
     8     2     3    1
     9     3     4    1
    10     4    18    1
    11    18    19    1
    12    19    20    1
    13    20    21   ar
    14    21    22   ar
    15    22    23   ar
    16    23    24   ar
    17    24    26    1
    18    26    27    1
    19    27    28    1
    20    28    29    1
    21    29    30   am
    22    30    31    2
    23    24    25   ar
    24     4     5    1
    25     5     6    1
    26    12    13   ar
    27    13    14   ar
    28    14    15   ar
    29    15    16   ar
    30    16    17   ar
    31    17     8   ar
    32    16    11   ar
    33     6     1    1
    34    25    20   ar
    35    30    26   am
    36    29    32    1
@<TRIPOS>MOLECULE
*****
 32 36 0 0 0
SMALL
GASTEIGER

@<TRIPOS>ATOM
      1 N          64.3380   89.6489   14.5148 N.pl3   1  UNL1       -0.3046
      2 C          64.7138   88.2763   14.0407 C.3     1  UNL1        0.1081
      3 C          64.2734   87.0689   14.8143 C.3     1  UNL1        0.0938
      4 N          63.4574   87.2341   16.0619 N.3     1  UNL1       -0.2695
      5 C          63.0816   88.6067   16.5360 C.3     1  UNL1        0.0938
      6 C          63.5219   89.8141   15.7625 C.3     1  UNL1        0.1081
      7 C          69.0597   94.4348   15.9465 C.3     1  UNL1        0.0521
      8 C          67.9894   93.5402   15.3952 C.ar    1  UNL1        0.0593
      9 C          67.5491   92.3328   16.1687 C.ar    1  UNL1        0.0148
     10 C          66.4787   91.4382   15.6174 C.ar    1  UNL1        0.0039
     11 C          65.8487   91.7509   14.2926 C.ar    1  UNL1        0.0310
     12 C          64.7783   90.8562   13.7413 C.ar    1  UNL1        0.0493
     13 C          64.1483   91.1689   12.4164 C.ar    1  UNL1        0.0146
     14 C          64.5886   92.3763   11.6428 C.ar    1  UNL1        0.0028
     15 C          65.6589   93.2710   12.1941 C.ar    1  UNL1        0.0192
     16 C          66.2890   92.9582   13.5191 C.ar    1  UNL1        0.0821
     17 N          67.3593   93.8529   14.0704 N.ar    1  UNL1       -0.2496
     18 C          63.0170   86.0267   16.8355 C.3     1  UNL1        0.0769
     19 C          62.0175   85.0790   16.2416 C.3     1  UNL1        0.0437
     20 C          62.4028   84.2150   15.0776 C.ar    1  UNL1       -0.0196
     21 C          62.8012   82.7866   15.3034 C.ar    1  UNL1       -0.0041
     22 C          63.1866   81.9225   14.1394 C.ar    1  UNL1        0.0010
     23 C          63.1735   82.4869   12.7496 C.ar    1  UNL1        0.0149
     24 C          62.7751   83.9153   12.5239 C.ar    1  UNL1        0.0550
     25 C          62.3898   84.7793   13.6880 C.ar    1  UNL1        0.0107
     26 N          62.7620   84.4796   11.1342 N.am    1  UNL1       -0.2416
     27 C          61.8934   85.6009   10.6460 C.3     1  UNL1        0.1210
     28 C          62.2098   85.8361    9.1988 C.3     1  UNL1        0.1128
     29 N          63.2741   84.8601    8.7925 N.am    1  UNL1       -0.2867
     30 C          63.6153   84.0218    9.9886 C.2     1  UNL1        0.3078
     31 O          64.6315   82.9193   10.0316 O.2     1  UNL1       -0.2522
     32 H          63.6777   84.7833    7.8978 H       1  UNL1        0.1510
@<TRIPOS>BOND
     1     7     8    1
     2     8     9   ar
     3     9    10   ar
     4    10    11   ar
     5    11    12   ar
     6    12     1    1
     7     1     2    1
     8     2     3    1
     9     3     4    1
    10     4    18    1
    11    18    19    1
    12    19    20    1
    13    20    21   ar
    14    21    22   ar
    15    22    23   ar
    16    23    24   ar
    17    24    26    1
    18    26    27    1
    19    27    28    1
    20    28    29    1
    21    29    30   am
    22    30    31    2
    23    24    25   ar
    24     4     5    1
    25     5     6    1
    26    12    13   ar
    27    13    14   ar
    28    14    15   ar
    29    15    16   ar
    30    16    17   ar
    31    17     8   ar
    32    16    11   ar
    33     6     1    1
    34    25    20   ar
    35    30    26   am
    36    29    32    1
@<TRIPOS>MOLECULE
*****
 32 36 0 0 0
SMALL
GASTEIGER

@<TRIPOS>ATOM
      1 N          62.6438   85.6237   12.5938 N.pl3   1  UNL1       -0.3046
      2 C          61.9284   85.8953   11.3037 C.3     1  UNL1        0.1081
      3 C          61.9970   87.2580   10.6805 C.3     1  UNL1        0.0938
      4 N          62.7811   88.3491   11.3475 N.3     1  UNL1       -0.2695
      5 C          63.4966   88.0774   12.6376 C.3     1  UNL1        0.0938
      6 C          63.4279   86.7148   13.2608 C.3     1  UNL1        0.1081
      7 C          63.1659   79.3655    9.7987 C.3     1  UNL1        0.0521
      8 C          63.0182   80.5894   10.6533 C.ar    1  UNL1        0.0593
      9 C          63.0869   81.9520   10.0301 C.ar    1  UNL1        0.0148
     10 C          62.9392   83.1759   10.8847 C.ar    1  UNL1        0.0039
     11 C          62.7228   83.0371   12.3625 C.ar    1  UNL1        0.0310
     12 C          62.5751   84.2610   13.2170 C.ar    1  UNL1        0.0493
     13 C          62.3588   84.1222   14.6948 C.ar    1  UNL1        0.0146
     14 C          62.2901   82.7595   15.3181 C.ar    1  UNL1        0.0028
     15 C          62.4378   81.5357   14.4635 C.ar    1  UNL1        0.0192
     16 C          62.6542   81.6745   12.9857 C.ar    1  UNL1        0.0821
     17 N          62.8019   80.4506   12.1311 N.ar    1  UNL1       -0.2496
     18 C          62.8498   89.7118   10.7243 C.3     1  UNL1        0.0769
     19 C          62.8558   90.9344   11.5932 C.3     1  UNL1        0.0437
     20 C          64.1542   91.5972   11.9465 C.ar    1  UNL1       -0.0196
     21 C          64.8401   91.2626   13.2378 C.ar    1  UNL1       -0.0041
     22 C          66.1385   91.9254   13.5911 C.ar    1  UNL1        0.0010
     23 C          66.7510   92.9229   12.6530 C.ar    1  UNL1        0.0149
     24 C          66.0651   93.2575   11.3616 C.ar    1  UNL1        0.0550
     25 C          64.7666   92.5946   11.0084 C.ar    1  UNL1        0.0107
     26 N          66.6775   94.2549   10.4236 N.am    1  UNL1       -0.2416
     27 C          66.3826   95.7251   10.3844 C.3     1  UNL1        0.1210
     28 C          67.2152   96.3361    9.2966 C.3     1  UNL1        0.1128
     29 N          68.0248   95.2434    8.6634 N.am    1  UNL1       -0.2867
     30 C          67.6924   93.9572    9.3599 C.2     1  UNL1        0.3078
     31 O          68.2731   92.6099    9.0476 O.2     1  UNL1       -0.2522
     32 H          68.6623   95.3515    7.9210 H       1  UNL1        0.1510
@<TRIPOS>BOND
     1     7     8    1
     2     8     9   ar
     3     9    10   ar
     4    10    11   ar
     5    11    12   ar
     6    12     1    1
     7     1     2    1
     8     2     3    1
     9     3     4    1
    10     4    18    1
    11    18    19    1
    12    19    20    1
    13    20    21   ar
    14    21    22   ar
    15    22    23   ar
    16    23    24   ar
    17    24    26    1
    18    26    27    1
    19    27    28    1
    20    28    29    1
    21    29    30   am
    22    30    31    2
    23    24    25   ar
    24     4     5    1
    25     5     6    1
    26    12    13   ar
    27    13    14   ar
    28    14    15   ar
    29    15    16   ar
    30    16    17   ar
    31    17     8   ar
    32    16    11   ar
    33     6     1    1
    34    25    20   ar
    35    30    26   am
    36    29    32    1
@<TRIPOS>MOLECULE
*****
 32 36 0 0 0
SMALL
GASTEIGER

@<TRIPOS>ATOM
      1 N          61.7539   87.9375   10.9604 N.pl3   1  UNL1       -0.3046
      2 C          61.9452   89.3770   11.3363 C.3     1  UNL1        0.1081
      3 C          62.8620   89.7415   12.4663 C.3     1  UNL1        0.0938
      4 N          63.5873   88.6667   13.2202 N.3     1  UNL1       -0.2695
      5 C          63.3960   87.2272   12.8443 C.3     1  UNL1        0.0938
      6 C          62.4793   86.8626   11.7144 C.3     1  UNL1        0.1081
      7 C          62.6893   83.7753    5.5705 C.3     1  UNL1        0.0521
      8 C          62.2263   84.7247    6.6355 C.ar    1  UNL1        0.0593
      9 C          63.1430   85.0893    7.7654 C.ar    1  UNL1        0.0148
     10 C          62.6799   86.0387    8.8304 C.ar    1  UNL1        0.0039
     11 C          61.3002   86.6235    8.7655 C.ar    1  UNL1        0.0310
     12 C          60.8372   87.5729    9.8305 C.ar    1  UNL1        0.0493
     13 C          59.4574   88.1578    9.7656 C.ar    1  UNL1        0.0146
     14 C          58.5407   87.7932    8.6357 C.ar    1  UNL1        0.0028
     15 C          59.0037   86.8438    7.5707 C.ar    1  UNL1        0.0192
     16 C          60.3835   86.2589    7.6356 C.ar    1  UNL1        0.0821
     17 N          60.8465   85.3095    6.5706 N.ar    1  UNL1       -0.2496
     18 C          64.5041   89.0312   14.3502 C.3     1  UNL1        0.0769
     19 C          64.3318   90.3395   15.0635 C.3     1  UNL1        0.0437
     20 C          65.2855   91.4674   14.8023 C.ar    1  UNL1       -0.0196
     21 C          66.0641   92.0687   15.9346 C.ar    1  UNL1       -0.0041
     22 C          67.0178   93.1966   15.6734 C.ar    1  UNL1        0.0010
     23 C          67.1929   93.7233   14.2798 C.ar    1  UNL1        0.0149
     24 C          66.4143   93.1220   13.1475 C.ar    1  UNL1        0.0550
     25 C          65.4605   91.9940   13.4087 C.ar    1  UNL1        0.0107
     26 N          66.5893   93.6486   11.7540 N.am    1  UNL1       -0.2416
     27 C          66.9908   92.8460   10.5520 C.3     1  UNL1        0.1210
     28 C          67.0432   93.7716    9.3729 C.3     1  UNL1        0.1128
     29 N          66.6741   95.1464    9.8461 N.am    1  UNL1       -0.2867
     30 C          66.3936   95.0703   11.3177 C.2     1  UNL1        0.3078
     31 O          65.9885   96.2150   12.1983 O.2     1  UNL1       -0.2522
     32 H          66.6247   95.9564    9.2887 H       1  UNL1        0.1510
@<TRIPOS>BOND
     1     7     8    1
     2     8     9   ar
     3     9    10   ar
     4    10    11   ar
     5    11    12   ar
     6    12     1    1
     7     1     2    1
     8     2     3    1
     9     3     4    1
    10     4    18    1
    11    18    19    1
    12    19    20    1
    13    20    21   ar
    14    21    22   ar
    15    22    23   ar
    16    23    24   ar
    17    24    26    1
    18    26    27    1
    19    27    28    1
    20    28    29    1
    21    29    30   am
    22    30    31    2
    23    24    25   ar
    24     4     5    1
    25     5     6    1
    26    12    13   ar
    27    13    14   ar
    28    14    15   ar
    29    15    16   ar
    30    16    17   ar
    31    17     8   ar
    32    16    11   ar
    33     6     1    1
    34    25    20   ar
    35    30    26   am
    36    29    32    1
@<TRIPOS>MOLECULE
*****
 32 36 0 0 0
SMALL
GASTEIGER

@<TRIPOS>ATOM
      1 N          63.8228   85.2151   12.8324 N.pl3   1  UNL1       -0.3046
      2 C          64.5225   85.2809   14.1576 C.3     1  UNL1        0.1081
      3 C          64.6169   86.5855   14.8919 C.3     1  UNL1        0.0938
      4 N          64.0116   87.8242   14.3010 N.3     1  UNL1       -0.2695
      5 C          63.3119   87.7584   12.9759 C.3     1  UNL1        0.0938
      6 C          63.2174   86.4539   12.2416 C.3     1  UNL1        0.1081
      7 C          60.4256   79.4344   14.3468 C.3     1  UNL1        0.0521
      8 C          61.2513   80.5534   13.7846 C.ar    1  UNL1        0.0593
      9 C          61.3457   81.8580   14.5189 C.ar    1  UNL1        0.0148
     10 C          62.1714   82.9770   13.9568 C.ar    1  UNL1        0.0039
     11 C          62.9026   82.7915   12.6603 C.ar    1  UNL1        0.0310
     12 C          63.7283   83.9105   12.0981 C.ar    1  UNL1        0.0493
     13 C          64.4595   83.7250   10.8017 C.ar    1  UNL1        0.0146
     14 C          64.3651   82.4205   10.0673 C.ar    1  UNL1        0.0028
     15 C          63.5394   81.3014   10.6295 C.ar    1  UNL1        0.0192
     16 C          62.8082   81.4870   11.9260 C.ar    1  UNL1        0.0821
     17 N          61.9825   80.3679   12.4882 N.ar    1  UNL1       -0.2496
     18 C          64.1060   89.1288   15.0353 C.3     1  UNL1        0.0769
     19 C          63.8048   90.4140   14.3228 C.3     1  UNL1        0.0437
     20 C          64.8509   91.4853   14.2339 C.ar    1  UNL1       -0.0196
     21 C          65.5800   91.9260   15.4685 C.ar    1  UNL1       -0.0041
     22 C          66.6261   92.9973   15.3796 C.ar    1  UNL1        0.0010
     23 C          66.9432   93.6279   14.0560 C.ar    1  UNL1        0.0149
     24 C          66.2142   93.1872   12.8214 C.ar    1  UNL1        0.0550
     25 C          65.1680   92.1158   12.9104 C.ar    1  UNL1        0.0107
     26 N          66.5312   93.8177   11.4979 N.am    1  UNL1       -0.2416
     27 C          67.0232   93.1014   10.2752 C.3     1  UNL1        0.1210
     28 C          67.2080   94.1163    9.1863 C.3     1  UNL1        0.1128
     29 N          66.8303   95.4599    9.7359 N.am    1  UNL1       -0.2867
     30 C          66.4120   95.2754   11.1646 C.2     1  UNL1        0.3078
     31 O          65.9548   96.3583   12.0963 O.2     1  UNL1       -0.2522
     32 H          66.8529   96.3131    9.2452 H       1  UNL1        0.1510
@<TRIPOS>BOND
     1     7     8    1
     2     8     9   ar
     3     9    10   ar
     4    10    11   ar
     5    11    12   ar
     6    12     1    1
     7     1     2    1
     8     2     3    1
     9     3     4    1
    10     4    18    1
    11    18    19    1
    12    19    20    1
    13    20    21   ar
    14    21    22   ar
    15    22    23   ar
    16    23    24   ar
    17    24    26    1
    18    26    27    1
    19    27    28    1
    20    28    29    1
    21    29    30   am
    22    30    31    2
    23    24    25   ar
    24     4     5    1
    25     5     6    1
    26    12    13   ar
    27    13    14   ar
    28    14    15   ar
    29    15    16   ar
    30    16    17   ar
    31    17     8   ar
    32    16    11   ar
    33     6     1    1
    34    25    20   ar
    35    30    26   am
    36    29    32    1
@<TRIPOS>MOLECULE
*****
 32 36 0 0 0
SMALL
GASTEIGER

@<TRIPOS>ATOM
      1 N          63.3785   88.6474   12.7281 N.pl3   1  UNL1       -0.3046
      2 C          63.1870   90.0612   12.2648 C.3     1  UNL1        0.1081
      3 C          63.7545   91.1960   13.0650 C.3     1  UNL1        0.0938
      4 N          64.5134   90.9171   14.3284 N.3     1  UNL1       -0.2695
      5 C          64.7049   89.5033   14.7917 C.3     1  UNL1        0.0938
      6 C          64.1375   88.3685   13.9916 C.3     1  UNL1        0.1081
      7 C          59.1960   88.6367    7.2732 C.3     1  UNL1        0.0521
      8 C          60.0998   88.3557    8.4369 C.ar    1  UNL1        0.0593
      9 C          60.6672   89.4905    9.2370 C.ar    1  UNL1        0.0148
     10 C          61.5710   89.2095   10.4007 C.ar    1  UNL1        0.0039
     11 C          61.9073   87.7936   10.7643 C.ar    1  UNL1        0.0310
     12 C          62.8111   87.5126   11.9280 C.ar    1  UNL1        0.0493
     13 C          63.1475   86.0968   12.2916 C.ar    1  UNL1        0.0146
     14 C          62.5800   84.9619   11.4915 C.ar    1  UNL1        0.0028
     15 C          61.6763   85.2429   10.3278 C.ar    1  UNL1        0.0192
     16 C          61.3399   86.6588    9.9642 C.ar    1  UNL1        0.0821
     17 N          60.4361   86.9398    8.8005 N.ar    1  UNL1       -0.2496
     18 C          65.0809   92.0519   15.1285 C.3     1  UNL1        0.0769
     19 C          66.4356   92.6019   14.7937 C.3     1  UNL1        0.0437
     20 C          66.8809   92.6799   13.3634 C.ar    1  UNL1       -0.0196
     21 C          67.8514   91.6714   12.8240 C.ar    1  UNL1       -0.0041
     22 C          68.2966   91.7494   11.3937 C.ar    1  UNL1        0.0010
     23 C          67.7713   92.8359   10.5029 C.ar    1  UNL1        0.0149
     24 C          66.8008   93.8444   11.0423 C.ar    1  UNL1        0.0550
     25 C          66.3556   93.7664   12.4727 C.ar    1  UNL1        0.0107
     26 N          66.2755   94.9309   10.1515 N.am    1  UNL1       -0.2416
     27 C          65.2705   95.9764   10.5348 C.3     1  UNL1        0.1210
     28 C          65.0368   96.8544    9.3412 C.3     1  UNL1        0.1128
     29 N          65.8975   96.3514    8.2203 N.am    1  UNL1       -0.2867
     30 C          66.6630   95.1627    8.7211 C.2     1  UNL1        0.3078
     31 O          67.6439   94.3487    7.9304 O.2     1  UNL1       -0.2522
     32 H          65.9506   96.7344    7.3149 H       1  UNL1        0.1510
@<TRIPOS>BOND
     1     7     8    1
     2     8     9   ar
     3     9    10   ar
     4    10    11   ar
     5    11    12   ar
     6    12     1    1
     7     1     2    1
     8     2     3    1
     9     3     4    1
    10     4    18    1
    11    18    19    1
    12    19    20    1
    13    20    21   ar
    14    21    22   ar
    15    22    23   ar
    16    23    24   ar
    17    24    26    1
    18    26    27    1
    19    27    28    1
    20    28    29    1
    21    29    30   am
    22    30    31    2
    23    24    25   ar
    24     4     5    1
    25     5     6    1
    26    12    13   ar
    27    13    14   ar
    28    14    15   ar
    29    15    16   ar
    30    16    17   ar
    31    17     8   ar
    32    16    11   ar
    33     6     1    1
    34    25    20   ar
    35    30    26   am
    36    29    32    1
@<TRIPOS>MOLECULE
*****
 32 36 0 0 0
SMALL
GASTEIGER

@<TRIPOS>ATOM
      1 N          62.1466   87.8008   11.4331 N.pl3   1  UNL1       -0.3046
      2 C          61.9773   87.0207   10.1632 C.3     1  UNL1        0.1081
      3 C          61.1186   87.5625    9.0589 C.3     1  UNL1        0.0938
      4 N          60.4293   88.8844    9.2247 N.3     1  UNL1       -0.2695
      5 C          60.5987   89.6645   10.4946 C.3     1  UNL1        0.0938
      6 C          61.4573   89.1228   11.5988 C.3     1  UNL1        0.1081
      7 C          63.6689   81.3316   13.1885 C.3     1  UNL1        0.0521
      8 C          63.5030   82.8135   13.0257 C.ar    1  UNL1        0.0593
      9 C          62.6444   83.3552   11.9215 C.ar    1  UNL1        0.0148
     10 C          62.4785   84.8371   11.7587 C.ar    1  UNL1        0.0039
     11 C          63.1712   85.7772   12.7001 C.ar    1  UNL1        0.0310
     12 C          63.0052   87.2591   12.5373 C.ar    1  UNL1        0.0493
     13 C          63.6979   88.1992   13.4786 C.ar    1  UNL1        0.0146
     14 C          64.5566   87.6575   14.5829 C.ar    1  UNL1        0.0028
     15 C          64.7225   86.1756   14.7457 C.ar    1  UNL1        0.0192
     16 C          64.0298   85.2355   13.8042 C.ar    1  UNL1        0.0821
     17 N          64.1957   83.7536   13.9670 N.ar    1  UNL1       -0.2496
     18 C          59.5707   89.4262    8.1205 C.3     1  UNL1        0.0769
     19 C          59.9900   89.2533    6.6907 C.3     1  UNL1        0.0437
     20 C          59.6886   90.3253    5.6858 C.ar    1  UNL1       -0.0196
     21 C          58.2956   90.8681    5.5633 C.ar    1  UNL1       -0.0041
     22 C          57.9942   91.9402    4.5584 C.ar    1  UNL1        0.0010
     23 C          59.0857   92.4694    3.6760 C.ar    1  UNL1        0.0149
     24 C          60.4786   91.9266    3.7986 C.ar    1  UNL1        0.0550
     25 C          60.7801   90.8545    4.8035 C.ar    1  UNL1        0.0107
     26 N          61.5701   92.4558    2.9163 N.am    1  UNL1       -0.2416
     27 C          61.4479   93.5971    1.9506 C.3     1  UNL1        0.1210
     28 C          62.7777   93.7834    1.2822 C.3     1  UNL1        0.1128
     29 N          63.7219   92.7571    1.8348 N.am    1  UNL1       -0.2867
     30 C          62.9756   91.9367    2.8447 C.2     1  UNL1        0.3078
     31 O          63.5363   90.7972    3.6429 O.2     1  UNL1       -0.2522
     32 H          64.6658   92.6422    1.5795 H       1  UNL1        0.1510
@<TRIPOS>BOND
     1     7     8    1
     2     8     9   ar
     3     9    10   ar
     4    10    11   ar
     5    11    12   ar
     6    12     1    1
     7     1     2    1
     8     2     3    1
     9     3     4    1
    10     4    18    1
    11    18    19    1
    12    19    20    1
    13    20    21   ar
    14    21    22   ar
    15    22    23   ar
    16    23    24   ar
    17    24    26    1
    18    26    27    1
    19    27    28    1
    20    28    29    1
    21    29    30   am
    22    30    31    2
    23    24    25   ar
    24     4     5    1
    25     5     6    1
    26    12    13   ar
    27    13    14   ar
    28    14    15   ar
    29    15    16   ar
    30    16    17   ar
    31    17     8   ar
    32    16    11   ar
    33     6     1    1
    34    25    20   ar
    35    30    26   am
    36    29    32    1
