@<TRIPOS>MOLECULE
*****
 12 13 0 0 0
SMALL
GASTEIGER

@<TRIPOS>ATOM
      1 C          59.4037   87.8565    7.8805 C.3     1  UNL1        0.1321
      2 N          60.1366   87.3197    9.0742 N.ar    1  UNL1       -0.3059
      3 C          60.0654   87.8633   10.4704 C.ar    1  UNL1        0.1786
      4 N          60.9541   87.0245   11.3402 N.ar    1  UNL1       -0.2238
      5 C          61.5745   85.9625   10.4816 C.ar    1  UNL1        0.1017
      6 C          61.0693   86.1449    9.0811 C.ar    1  UNL1        0.0965
      7 C          62.5321   84.9039   10.9426 C.ar    1  UNL1        0.0383
      8 C          63.3416   84.1366    9.9397 C.ar    1  UNL1        0.0047
      9 C          64.2991   83.0781   10.4007 C.ar    1  UNL1        0.0207
     10 C          64.4472   82.7868   11.8647 C.ar    1  UNL1        0.0989
     11 N          63.6377   83.5541   12.8676 N.ar    1  UNL1       -0.2423
     12 C          62.6802   84.6126   12.4066 C.ar    1  UNL1        0.1004
@<TRIPOS>BOND
     1     1     2    1
     2     2     3   ar
     3     3     4   ar
     4     4     5   ar
     5     5     7    1
     6     7     8   ar
     7     8     9   ar
     8     9    10   ar
     9    10    11   ar
    10    11    12   ar
    11     5     6   ar
    12     6     2   ar
    13    12     7   ar
@<TRIPOS>MOLECULE
*****
 12 13 0 0 0
SMALL
GASTEIGER

@<TRIPOS>ATOM
      1 C          67.2425   92.7642   16.1270 C.3     1  UNL1        0.1321
      2 N          66.4680   92.6345   14.8490 N.ar    1  UNL1       -0.3059
      3 C          66.4598   93.6211   13.7190 C.ar    1  UNL1        0.1786
      4 N          65.5526   93.0918   12.6482 N.ar    1  UNL1       -0.2238
      5 C          65.0000   91.7781   13.1163 C.ar    1  UNL1        0.1017
      6 C          65.5658   91.4956   14.4765 C.ar    1  UNL1        0.0965
      7 C          64.0487   90.9011   12.3575 C.ar    1  UNL1        0.0383
      8 C          63.6065   91.2912   10.9783 C.ar    1  UNL1        0.0047
      9 C          62.6552   90.4142   10.2195 C.ar    1  UNL1        0.0207
     10 C          62.1461   89.1470   10.8400 C.ar    1  UNL1        0.0989
     11 N          62.5882   88.7568   12.2192 N.ar    1  UNL1       -0.2423
     12 C          63.5395   89.6339   12.9779 C.ar    1  UNL1        0.1004
@<TRIPOS>BOND
     1     1     2    1
     2     2     3   ar
     3     3     4   ar
     4     4     5   ar
     5     5     7    1
     6     7     8   ar
     7     8     9   ar
     8     9    10   ar
     9    10    11   ar
    10    11    12   ar
    11     5     6   ar
    12     6     2   ar
    13    12     7   ar
@<TRIPOS>MOLECULE
*****
 12 13 0 0 0
SMALL
GASTEIGER

@<TRIPOS>ATOM
      1 C          59.7146   87.9658    7.9971 C.3     1  UNL1        0.1321
      2 N          60.3837   87.3298    9.1794 N.ar    1  UNL1       -0.3059
      3 C          60.2490   87.7653   10.6085 C.ar    1  UNL1        0.1786
      4 N          61.0871   86.8514   11.4525 N.ar    1  UNL1       -0.2238
      5 C          61.7397   85.8510   10.5451 C.ar    1  UNL1        0.1017
      6 C          61.3050   86.1467    9.1403 C.ar    1  UNL1        0.0965
      7 C          62.6647   84.7486   10.9683 C.ar    1  UNL1        0.0383
      8 C          62.7221   84.3285   12.4071 C.ar    1  UNL1        0.0047
      9 C          63.6470   83.2261   12.8302 C.ar    1  UNL1        0.0207
     10 C          64.5146   82.5437   11.8145 C.ar    1  UNL1        0.0989
     11 N          64.4573   82.9638   10.3757 N.ar    1  UNL1       -0.2423
     12 C          63.5323   84.0662    9.9526 C.ar    1  UNL1        0.1004
@<TRIPOS>BOND
     1     1     2    1
     2     2     3   ar
     3     3     4   ar
     4     4     5   ar
     5     5     7    1
     6     7     8   ar
     7     8     9   ar
     8     9    10   ar
     9    10    11   ar
    10    11    12   ar
    11     5     6   ar
    12     6     2   ar
    13    12     7   ar
@<TRIPOS>MOLECULE
*****
 12 13 0 0 0
SMALL
GASTEIGER

@<TRIPOS>ATOM
      1 C          62.5657   90.8836   10.4785 C.3     1  UNL1        0.1321
      2 N          63.3792   90.8188   11.7371 N.ar    1  UNL1       -0.3059
      3 C          63.1334   89.9033   12.8997 C.ar    1  UNL1        0.1786
      4 N          64.1836   90.1769   13.9352 N.ar    1  UNL1       -0.2238
      5 C          65.0784   91.2614   13.4126 C.ar    1  UNL1        0.1017
      6 C          64.5813   91.6582   12.0542 C.ar    1  UNL1        0.0965
      7 C          66.2625   91.8465   14.1237 C.ar    1  UNL1        0.0383
      8 C          66.1214   92.3432   15.5320 C.ar    1  UNL1        0.0047
      9 C          67.3055   92.9283   16.2431 C.ar    1  UNL1        0.0207
     10 C          68.6307   93.0166   15.5458 C.ar    1  UNL1        0.0989
     11 N          68.7717   92.5199   14.1375 N.ar    1  UNL1       -0.2423
     12 C          67.5877   91.9349   13.4265 C.ar    1  UNL1        0.1004
@<TRIPOS>BOND
     1     1     2    1
     2     2     3   ar
     3     3     4   ar
     4     4     5   ar
     5     5     7    1
     6     7     8   ar
     7     8     9   ar
     8     9    10   ar
     9    10    11   ar
    10    11    12   ar
    11     5     6   ar
    12     6     2   ar
    13    12     7   ar
@<TRIPOS>MOLECULE
*****
 12 13 0 0 0
SMALL
GASTEIGER

@<TRIPOS>ATOM
      1 C          64.2759   91.5434   12.5008 C.3     1  UNL1        0.1321
      2 N          63.5416   90.3105   12.0641 N.ar    1  UNL1       -0.3059
      3 C          63.5246   88.9936   12.7822 C.ar    1  UNL1        0.1786
      4 N          62.6678   88.0472   11.9946 N.ar    1  UNL1       -0.2238
      5 C          62.1553   88.7792   10.7898 C.ar    1  UNL1        0.1017
      6 C          62.6953   90.1780   10.8328 C.ar    1  UNL1        0.0965
      7 C          61.2599   88.2120    9.7283 C.ar    1  UNL1        0.0383
      8 C          61.2969   86.7441    9.4217 C.ar    1  UNL1        0.0047
      9 C          60.4015   86.1770    8.3603 C.ar    1  UNL1        0.0207
     10 C          59.4692   87.0776    7.6055 C.ar    1  UNL1        0.0989
     11 N          59.4323   88.5454    7.9122 N.ar    1  UNL1       -0.2423
     12 C          60.3276   89.1126    8.9736 C.ar    1  UNL1        0.1004
@<TRIPOS>BOND
     1     1     2    1
     2     2     3   ar
     3     3     4   ar
     4     4     5   ar
     5     5     7    1
     6     7     8   ar
     7     8     9   ar
     8     9    10   ar
     9    10    11   ar
    10    11    12   ar
    11     5     6   ar
    12     6     2   ar
    13    12     7   ar
@<TRIPOS>MOLECULE
*****
 12 13 0 0 0
SMALL
GASTEIGER

@<TRIPOS>ATOM
      1 C          64.1924   90.7751   15.2671 C.3     1  UNL1        0.1321
      2 N          65.1492   91.6834   14.5533 N.ar    1  UNL1       -0.3059
      3 C          66.1639   92.5790   15.2002 C.ar    1  UNL1        0.1786
      4 N          66.9011   93.3046   14.1139 N.ar    1  UNL1       -0.2238
      5 C          66.3421   92.8575   12.7957 C.ar    1  UNL1        0.1017
      6 C          65.2593   91.8555   13.0673 C.ar    1  UNL1        0.0965
      7 C          66.7876   93.3295   11.4434 C.ar    1  UNL1        0.0383
      8 C          67.5893   92.4215   10.5587 C.ar    1  UNL1        0.0047
      9 C          68.0348   92.8936    9.2064 C.ar    1  UNL1        0.0207
     10 C          67.6785   94.2736    8.7388 C.ar    1  UNL1        0.0989
     11 N          66.8768   95.1816    9.6236 N.ar    1  UNL1       -0.2423
     12 C          66.4313   94.7096   10.9758 C.ar    1  UNL1        0.1004
@<TRIPOS>BOND
     1     1     2    1
     2     2     3   ar
     3     3     4   ar
     4     4     5   ar
     5     5     7    1
     6     7     8   ar
     7     8     9   ar
     8     9    10   ar
     9    10    11   ar
    10    11    12   ar
    11     5     6   ar
    12     6     2   ar
    13    12     7   ar
@<TRIPOS>MOLECULE
*****
 12 13 0 0 0
SMALL
GASTEIGER

@<TRIPOS>ATOM
      1 C          64.0821   90.5984   15.0082 C.3     1  UNL1        0.1321
      2 N          64.3024   91.0927   13.6092 N.ar    1  UNL1       -0.3059
      3 C          63.4667   90.7508   12.4114 C.ar    1  UNL1        0.1786
      4 N          64.0449   91.4624   11.2243 N.ar    1  UNL1       -0.2238
      5 C          65.2380   92.2442   11.6884 C.ar    1  UNL1        0.1017
      6 C          65.3972   92.0156   13.1623 C.ar    1  UNL1        0.0965
      7 C          66.1176   93.1035   10.8293 C.ar    1  UNL1        0.0383
      8 C          67.2808   92.4960   10.1029 C.ar    1  UNL1        0.0047
      9 C          68.1602   93.3553    9.2438 C.ar    1  UNL1        0.0207
     10 C          67.8765   94.8223    9.1113 C.ar    1  UNL1        0.0989
     11 N          66.7133   95.4299    9.8378 N.ar    1  UNL1       -0.2423
     12 C          65.8339   94.5705   10.6968 C.ar    1  UNL1        0.1004
@<TRIPOS>BOND
     1     1     2    1
     2     2     3   ar
     3     3     4   ar
     4     4     5   ar
     5     5     7    1
     6     7     8   ar
     7     8     9   ar
     8     9    10   ar
     9    10    11   ar
    10    11    12   ar
    11     5     6   ar
    12     6     2   ar
    13    12     7   ar
@<TRIPOS>MOLECULE
*****
 12 13 0 0 0
SMALL
GASTEIGER

@<TRIPOS>ATOM
      1 C          60.6468   86.5600    9.2719 C.3     1  UNL1        0.1321
      2 N          60.9659   87.7080   10.1830 N.ar    1  UNL1       -0.3059
      3 C          60.0722   88.2575   11.2552 C.ar    1  UNL1        0.1786
      4 N          60.7886   89.3973   11.9167 N.ar    1  UNL1       -0.2238
      5 C          62.1251   89.5522   11.2533 C.ar    1  UNL1        0.1017
      6 C          62.2346   88.5083   10.1819 C.ar    1  UNL1        0.0965
      7 C          63.1687   90.5722   11.6006 C.ar    1  UNL1        0.0383
      8 C          63.7980   91.3995   10.5191 C.ar    1  UNL1        0.0047
      9 C          64.8416   92.4194   10.8664 C.ar    1  UNL1        0.0207
     10 C          65.2560   92.6120   12.2951 C.ar    1  UNL1        0.0989
     11 N          64.6268   91.7847   13.3766 N.ar    1  UNL1       -0.2423
     12 C          63.5831   90.7648   13.0293 C.ar    1  UNL1        0.1004
@<TRIPOS>BOND
     1     1     2    1
     2     2     3   ar
     3     3     4   ar
     4     4     5   ar
     5     5     7    1
     6     7     8   ar
     7     8     9   ar
     8     9    10   ar
     9    10    11   ar
    10    11    12   ar
    11     5     6   ar
    12     6     2   ar
    13    12     7   ar
@<TRIPOS>MOLECULE
*****
 12 13 0 0 0
SMALL
GASTEIGER

@<TRIPOS>ATOM
      1 C          68.8599   92.6311   15.5749 C.3     1  UNL1        0.1321
      2 N          67.4328   92.3566   15.2033 N.ar    1  UNL1       -0.3059
      3 C          66.2354   92.5772   16.0796 C.ar    1  UNL1        0.1786
      4 N          65.0152   92.1704   15.3080 N.ar    1  UNL1       -0.2238
      5 C          65.4583   91.6984   13.9548 C.ar    1  UNL1        0.1017
      6 C          66.9524   91.8136   13.8901 C.ar    1  UNL1        0.0965
      7 C          64.5641   91.1990   12.8588 C.ar    1  UNL1        0.0383
      8 C          63.7304   89.9705   13.0723 C.ar    1  UNL1        0.0047
      9 C          62.8363   89.4712   11.9763 C.ar    1  UNL1        0.0207
     10 C          62.7760   90.2004   10.6668 C.ar    1  UNL1        0.0989
     11 N          63.6097   91.4289   10.4534 N.ar    1  UNL1       -0.2423
     12 C          64.5038   91.9282   11.5494 C.ar    1  UNL1        0.1004
@<TRIPOS>BOND
     1     1     2    1
     2     2     3   ar
     3     3     4   ar
     4     4     5   ar
     5     5     7    1
     6     7     8   ar
     7     8     9   ar
     8     9    10   ar
     9    10    11   ar
    10    11    12   ar
    11     5     6   ar
    12     6     2   ar
    13    12     7   ar
