@<TRIPOS>MOLECULE
*****
 41 44 0 0 0
SMALL
GASTEIGER

@<TRIPOS>ATOM
      1 C          60.5846   88.2372    9.2837 C.ar    1  UNL1        0.1636
      2 N          60.8995   86.9304    9.9493 N.ar    1  UNL1       -0.2381
      3 C          61.8218   87.2065   11.0996 C.ar    1  UNL1        0.0657
      4 C          62.0769   88.6840   11.1449 C.ar    1  UNL1        0.0445
      5 S          61.3122   89.3209   10.0226 S.2     1  UNL1       -0.0624
      6 C          62.9443   89.3989   12.1381 C.ar    1  UNL1        0.0073
      7 C          63.0882   88.8623   13.5314 C.ar    1  UNL1        0.0019
      8 C          63.9556   89.5772   14.5246 C.ar    1  UNL1        0.0199
      9 C          64.6792   90.8288   14.1246 C.ar    1  UNL1        0.1219
     10 C          64.5353   91.3654   12.7312 C.ar    1  UNL1        0.0186
     11 C          65.2588   92.6170   12.3311 C.ar    1  UNL1        0.0013
     12 C          65.1149   93.1536   10.9378 C.ar    1  UNL1        0.0000
     13 C          64.2475   92.4386    9.9446 C.ar    1  UNL1        0.0000
     14 C          63.5240   91.1871   10.3447 C.ar    1  UNL1        0.0001
     15 C          63.6679   90.6505   11.7380 C.ar    1  UNL1        0.0018
     16 S          65.5466   91.5437   15.1178 S.O2    1  UNL1        0.0601
     17 O          64.3231   92.0766   15.8027 O.2     1  UNL1       -0.1530
     18 O          66.7700   91.0108   14.4329 O.2     1  UNL1       -0.1530
     19 N          66.4140   92.2586   16.1110 N.3     1  UNL1       -0.1820
     20 H          66.6402   91.5852   16.8429 H       1  UNL1        0.1487
     21 C          67.7105   92.8711   15.6704 C.3     1  UNL1        0.0622
     22 C          68.4580   91.9463   16.5846 C.3     1  UNL1        0.0175
     23 C          66.9630   93.7960   14.7563 C.3     1  UNL1        0.0175
     24 C          69.0070   93.4836   15.2300 C.3     1  UNL1        0.0175
     25 N          59.8043   89.6770    7.2668 N.am    1  UNL1       -0.2969
     26 C          59.6977   88.4270    8.0890 C.2     1  UNL1        0.2699
     27 O          58.7043   87.3667    7.7164 O.2     1  UNL1       -0.2679
     28 H          60.4563   90.3729    7.5113 H       1  UNL1        0.1499
     29 C          58.9174   89.8668    6.0720 C.3     1  UNL1        0.1166
     30 C          60.5216   91.0008    5.2714 C.3     1  UNL1        0.0311
     31 C          59.0261   91.1154    5.2481 C.3     1  UNL1        0.1064
     32 C          57.5307   91.2301    5.2246 C.3     1  UNL1        0.0311
     33 O          59.1348   92.3641    4.4240 O.3     1  UNL1       -0.3851
     34 H          60.0700   92.5633    4.2607 H       1  UNL1        0.2103
     35 C          62.3894   86.1846   12.0396 C.3     1  UNL1        0.0463
     36 C          62.8235   84.8464   11.5194 C.3     1  UNL1        0.0059
     37 C          63.3679   84.7235   10.1271 C.3     1  UNL1        0.0004
     38 C          63.8021   83.3852    9.6069 C.3     1  UNL1        0.0000
     39 C          63.6917   82.1699   10.4790 C.3     1  UNL1        0.0000
     40 C          63.1472   82.2927   11.8713 C.3     1  UNL1        0.0000
     41 C          62.7131   83.6309   12.3915 C.3     1  UNL1        0.0004
@<TRIPOS>BOND
     1    30    31    1
     2    31    32    1
     3    31    33    1
     4    31    29    1
     5    29    25    1
     6    25    26   am
     7    26    27    2
     8    26     1    1
     9     1     2   ar
    10     2     3   ar
    11     3    35    1
    12    35    36    1
    13    36    37    1
    14    37    38    1
    15    38    39    1
    16    39    40    1
    17    40    41    1
    18     3     4   ar
    19     4     6    1
    20     6     7   ar
    21     7     8   ar
    22     8     9   ar
    23     9    16    1
    24    16    17    2
    25    16    18    2
    26    16    19    1
    27    19    21    1
    28    21    22    1
    29    21    23    1
    30    21    24    1
    31     9    10   ar
    32    10    11   ar
    33    11    12   ar
    34    12    13   ar
    35    13    14   ar
    36    14    15   ar
    37     4     5   ar
    38     5     1   ar
    39    41    36    1
    40    15     6   ar
    41    15    10   ar
    42    33    34    1
    43    25    28    1
    44    19    20    1
@<TRIPOS>MOLECULE
*****
 41 44 0 0 0
SMALL
GASTEIGER

@<TRIPOS>ATOM
      1 C          60.5928   88.9273    9.0646 C.ar    1  UNL1        0.1636
      2 N          60.9119   87.7311    9.9115 N.ar    1  UNL1       -0.2381
      3 C          62.0019   88.1172   10.8669 C.ar    1  UNL1        0.0657
      4 C          62.3564   89.5519   10.6106 C.ar    1  UNL1        0.0445
      5 S          61.4855   90.0526    9.4966 S.2     1  UNL1       -0.0624
      6 C          63.3988   90.3465   11.3400 C.ar    1  UNL1        0.0073
      7 C          64.3620   91.2031   10.5729 C.ar    1  UNL1        0.0019
      8 C          65.4043   91.9976   11.3024 C.ar    1  UNL1        0.0199
      9 C          65.4835   91.9357   12.7990 C.ar    1  UNL1        0.1219
     10 C          64.5203   91.0791   13.5662 C.ar    1  UNL1        0.0186
     11 C          64.5995   91.0171   15.0628 C.ar    1  UNL1        0.0013
     12 C          63.6363   90.1605   15.8299 C.ar    1  UNL1        0.0000
     13 C          62.5939   89.3660   15.1004 C.ar    1  UNL1        0.0000
     14 C          62.5147   89.4279   13.6038 C.ar    1  UNL1        0.0001
     15 C          63.4779   90.2845   12.8367 C.ar    1  UNL1        0.0018
     16 S          66.5259   92.7302   13.5284 S.O2    1  UNL1        0.0601
     17 O          65.6282   93.9317   13.5025 O.2     1  UNL1       -0.1530
     18 O          67.4236   91.5288   13.5543 O.2     1  UNL1       -0.1530
     19 N          67.5682   93.5248   14.2579 N.3     1  UNL1       -0.1820
     20 H          67.1057   94.3619   14.6125 H       1  UNL1        0.1487
     21 C          68.3042   92.9142   15.4136 C.3     1  UNL1        0.0622
     22 C          67.0601   92.9936   16.2478 C.3     1  UNL1        0.0175
     23 C          69.5483   92.8347   14.5794 C.3     1  UNL1        0.0175
     24 C          69.0401   92.3036   16.5693 C.3     1  UNL1        0.0175
     25 N          59.5428   90.1469    7.0249 N.am    1  UNL1       -0.2969
     26 C          59.5619   88.9876    7.9766 C.2     1  UNL1        0.2699
     27 O          58.5502   87.8886    7.8404 O.2     1  UNL1       -0.2679
     28 H          60.2069   90.8681    7.1143 H       1  UNL1        0.1499
     29 C          58.5120   90.2072    5.9369 C.3     1  UNL1        0.1166
     30 C          60.0824   91.1446    4.8622 C.3     1  UNL1        0.0311
     31 C          58.5886   91.2782    4.8896 C.3     1  UNL1        0.1064
     32 C          57.0948   91.4119    4.9170 C.3     1  UNL1        0.0311
     33 O          58.6653   92.3493    3.8423 O.3     1  UNL1       -0.3851
     34 H          59.5926   92.4986    3.5998 H       1  UNL1        0.2103
     35 C          62.6275   87.2250   11.8978 C.3     1  UNL1        0.0463
     36 C          62.8078   85.7631   11.6147 C.3     1  UNL1        0.0059
     37 C          63.0776   85.2982   10.2142 C.3     1  UNL1        0.0004
     38 C          63.2579   83.8362    9.9311 C.3     1  UNL1        0.0000
     39 C          63.1683   82.8393   11.0482 C.3     1  UNL1        0.0000
     40 C          62.8985   83.3042   12.4486 C.3     1  UNL1        0.0000
     41 C          62.7182   84.7661   12.7318 C.3     1  UNL1        0.0004
@<TRIPOS>BOND
     1    30    31    1
     2    31    32    1
     3    31    33    1
     4    31    29    1
     5    29    25    1
     6    25    26   am
     7    26    27    2
     8    26     1    1
     9     1     2   ar
    10     2     3   ar
    11     3    35    1
    12    35    36    1
    13    36    37    1
    14    37    38    1
    15    38    39    1
    16    39    40    1
    17    40    41    1
    18     3     4   ar
    19     4     6    1
    20     6     7   ar
    21     7     8   ar
    22     8     9   ar
    23     9    16    1
    24    16    17    2
    25    16    18    2
    26    16    19    1
    27    19    21    1
    28    21    22    1
    29    21    23    1
    30    21    24    1
    31     9    10   ar
    32    10    11   ar
    33    11    12   ar
    34    12    13   ar
    35    13    14   ar
    36    14    15   ar
    37     4     5   ar
    38     5     1   ar
    39    41    36    1
    40    15     6   ar
    41    15    10   ar
    42    33    34    1
    43    25    28    1
    44    19    20    1
@<TRIPOS>MOLECULE
*****
 41 44 0 0 0
SMALL
GASTEIGER

@<TRIPOS>ATOM
      1 C          62.4126   86.2704   12.5964 C.ar    1  UNL1        0.1636
      2 N          61.2626   86.8315   11.8137 N.ar    1  UNL1       -0.2381
      3 C          61.6080   88.2390   11.4270 C.ar    1  UNL1        0.0657
      4 C          62.9715   88.5478   11.9705 C.ar    1  UNL1        0.0445
      5 S          63.4688   87.3311   12.6932 S.2     1  UNL1       -0.0624
      6 C          63.7084   89.8454   11.8181 C.ar    1  UNL1        0.0073
      7 C          63.8708   90.4606   10.4598 C.ar    1  UNL1        0.0019
      8 C          64.6077   91.7582   10.3074 C.ar    1  UNL1        0.0199
      9 C          65.1822   92.4406   11.5133 C.ar    1  UNL1        0.1219
     10 C          65.0197   91.8254   12.8717 C.ar    1  UNL1        0.0186
     11 C          65.5942   92.5078   14.0776 C.ar    1  UNL1        0.0013
     12 C          65.4317   91.8926   15.4360 C.ar    1  UNL1        0.0000
     13 C          64.6949   90.5950   15.5884 C.ar    1  UNL1        0.0000
     14 C          64.1204   89.9126   14.3824 C.ar    1  UNL1        0.0001
     15 C          64.2829   90.5278   13.0241 C.ar    1  UNL1        0.0018
     16 S          65.9190   93.7382   11.3609 S.O2    1  UNL1        0.0601
     17 O          67.0291   93.2087   12.2196 O.2     1  UNL1       -0.1530
     18 O          64.8090   94.2677   10.5021 O.2     1  UNL1       -0.1530
     19 N          66.6559   95.0358   11.2085 N.3     1  UNL1       -0.1820
     20 H          67.5494   94.9251   11.6878 H       1  UNL1        0.1487
     21 C          66.9618   95.5684    9.8399 C.3     1  UNL1        0.0622
     22 C          67.6601   94.2859    9.4970 C.3     1  UNL1        0.0175
     23 C          66.2635   96.8508   10.1828 C.3     1  UNL1        0.0175
     24 C          67.2677   96.1008    8.4714 C.3     1  UNL1        0.0175
     25 N          62.9357   83.7399   12.3258 N.am    1  UNL1       -0.2969
     26 C          62.4925   84.8908   13.1797 C.2     1  UNL1        0.2699
     27 O          62.1291   84.6620   14.6169 O.2     1  UNL1       -0.2679
     28 H          63.1742   83.8901   11.3825 H       1  UNL1        0.1499
     29 C          63.0156   82.3603   12.9091 C.3     1  UNL1        0.1166
     30 C          62.4058   80.3423   13.1457 C.3     1  UNL1        0.0311
     31 C          62.9461   81.1611   12.0109 C.3     1  UNL1        0.1064
     32 C          63.4863   81.9798   10.8761 C.3     1  UNL1        0.0311
     33 O          62.8766   79.9618   11.1126 O.3     1  UNL1       -0.3851
     34 H          62.5322   79.2041   11.6109 H       1  UNL1        0.2103
     35 C          60.7419   89.1737   10.6355 C.3     1  UNL1        0.0463
     36 C          60.1741   88.7358    9.3181 C.3     1  UNL1        0.0059
     37 C          60.0135   89.7272    8.2039 C.3     1  UNL1        0.0004
     38 C          59.4457   89.2893    6.8864 C.3     1  UNL1        0.0000
     39 C          59.0385   87.8600    6.6831 C.3     1  UNL1        0.0000
     40 C          59.1991   86.8686    7.7972 C.3     1  UNL1        0.0000
     41 C          59.7669   87.3065    9.1148 C.3     1  UNL1        0.0004
@<TRIPOS>BOND
     1    30    31    1
     2    31    32    1
     3    31    33    1
     4    31    29    1
     5    29    25    1
     6    25    26   am
     7    26    27    2
     8    26     1    1
     9     1     2   ar
    10     2     3   ar
    11     3    35    1
    12    35    36    1
    13    36    37    1
    14    37    38    1
    15    38    39    1
    16    39    40    1
    17    40    41    1
    18     3     4   ar
    19     4     6    1
    20     6     7   ar
    21     7     8   ar
    22     8     9   ar
    23     9    16    1
    24    16    17    2
    25    16    18    2
    26    16    19    1
    27    19    21    1
    28    21    22    1
    29    21    23    1
    30    21    24    1
    31     9    10   ar
    32    10    11   ar
    33    11    12   ar
    34    12    13   ar
    35    13    14   ar
    36    14    15   ar
    37     4     5   ar
    38     5     1   ar
    39    41    36    1
    40    15     6   ar
    41    15    10   ar
    42    33    34    1
    43    25    28    1
    44    19    20    1
@<TRIPOS>MOLECULE
*****
 41 44 0 0 0
SMALL
GASTEIGER

@<TRIPOS>ATOM
      1 C          60.8231   88.0641    9.5274 C.ar    1  UNL1        0.1636
      2 N          61.5671   86.8078    9.8710 N.ar    1  UNL1       -0.2381
      3 C          62.5746   87.1410   10.9311 C.ar    1  UNL1        0.0657
      4 C          62.4533   88.6032   11.2427 C.ar    1  UNL1        0.0445
      5 S          61.3708   89.1737   10.3752 S.2     1  UNL1       -0.0624
      6 C          63.2710   89.3618   12.2458 C.ar    1  UNL1        0.0073
      7 C          63.4246   88.8339   13.6414 C.ar    1  UNL1        0.0019
      8 C          64.2422   89.5924   14.6444 C.ar    1  UNL1        0.0199
      9 C          64.9063   90.8788   14.2518 C.ar    1  UNL1        0.1219
     10 C          64.7527   91.4068   12.8562 C.ar    1  UNL1        0.0186
     11 C          65.4168   92.6932   12.4636 C.ar    1  UNL1        0.0013
     12 C          65.2632   93.2210   11.0680 C.ar    1  UNL1        0.0000
     13 C          64.4455   92.4625   10.0650 C.ar    1  UNL1        0.0000
     14 C          63.7815   91.1761   10.4576 C.ar    1  UNL1        0.0001
     15 C          63.9351   90.6482   11.8531 C.ar    1  UNL1        0.0018
     16 S          65.7239   91.6374   15.2549 S.O2    1  UNL1        0.0601
     17 O          66.9795   91.0775   14.6548 O.2     1  UNL1       -0.1530
     18 O          64.4684   92.1972   15.8550 O.2     1  UNL1       -0.1530
     19 N          66.5416   92.3959   16.2579 N.3     1  UNL1       -0.1820
     20 H          66.7366   91.7531   17.0254 H       1  UNL1        0.1487
     21 C          67.8544   92.9985   15.8536 C.3     1  UNL1        0.0622
     22 C          67.1354   93.9655   14.9604 C.3     1  UNL1        0.0175
     23 C          68.5734   92.0315   16.7468 C.3     1  UNL1        0.0175
     24 C          69.1672   93.6011   15.4493 C.3     1  UNL1        0.0175
     25 N          59.7008   89.3570    7.5732 N.am    1  UNL1       -0.2969
     26 C          59.7243   88.1889    8.5140 C.2     1  UNL1        0.2699
     27 O          58.6489   87.1457    8.4414 O.2     1  UNL1       -0.2679
     28 H          60.4066   90.0417    7.6208 H       1  UNL1        0.1499
     29 C          58.6019   89.4818    6.5598 C.3     1  UNL1        0.1166
     30 C          57.1460   90.6173    5.5152 C.3     1  UNL1        0.0311
     31 C          58.6454   90.5787    5.5377 C.3     1  UNL1        0.1064
     32 C          60.1447   90.5402    5.5601 C.3     1  UNL1        0.0311
     33 O          58.6888   91.6758    4.5156 O.3     1  UNL1       -0.3851
     34 H          57.7841   91.9357    4.2816 H       1  UNL1        0.2103
     35 C          63.5349   86.1805   11.5678 C.3     1  UNL1        0.0463
     36 C          63.2132   85.5705   12.8998 C.3     1  UNL1        0.0059
     37 C          62.1175   84.5523   13.0134 C.3     1  UNL1        0.0004
     38 C          61.7958   83.9422   14.3455 C.3     1  UNL1        0.0000
     39 C          62.5697   84.3503   15.5638 C.3     1  UNL1        0.0000
     40 C          63.6654   85.3685   15.4502 C.3     1  UNL1        0.0000
     41 C          63.9871   85.9786   14.1182 C.3     1  UNL1        0.0004
@<TRIPOS>BOND
     1    30    31    1
     2    31    32    1
     3    31    33    1
     4    31    29    1
     5    29    25    1
     6    25    26   am
     7    26    27    2
     8    26     1    1
     9     1     2   ar
    10     2     3   ar
    11     3    35    1
    12    35    36    1
    13    36    37    1
    14    37    38    1
    15    38    39    1
    16    39    40    1
    17    40    41    1
    18     3     4   ar
    19     4     6    1
    20     6     7   ar
    21     7     8   ar
    22     8     9   ar
    23     9    16    1
    24    16    17    2
    25    16    18    2
    26    16    19    1
    27    19    21    1
    28    21    22    1
    29    21    23    1
    30    21    24    1
    31     9    10   ar
    32    10    11   ar
    33    11    12   ar
    34    12    13   ar
    35    13    14   ar
    36    14    15   ar
    37     4     5   ar
    38     5     1   ar
    39    41    36    1
    40    15     6   ar
    41    15    10   ar
    42    33    34    1
    43    25    28    1
    44    19    20    1
