@<TRIPOS>MOLECULE
*****
 17 18 0 0 0
SMALL
GASTEIGER

@<TRIPOS>ATOM
      1 N          62.1506   86.3065   11.2035 N.ar    1  UNL1       -0.3113
      2 C          61.2847   85.8253   10.0772 C.ar    1  UNL1        0.0813
      3 C          60.6727   86.8119    9.1274 C.ar    1  UNL1        0.0702
      4 C          60.9266   88.2797    9.3040 C.ar    1  UNL1        0.2010
      5 O          60.3146   89.2663    8.3542 O.2     1  UNL1       -0.2864
      6 C          61.7925   88.7609   10.4304 C.ar    1  UNL1        0.0731
      7 C          62.0463   90.2287   10.6070 C.ar    1  UNL1        0.0074
      8 C          62.9122   90.7098   11.7333 C.ar    1  UNL1        0.0150
      9 C          63.5242   89.7233   12.6831 C.ar    1  UNL1        0.0610
     10 C          64.3901   90.2045   13.8095 C.3     1  UNL1        0.0521
     11 N          63.2703   88.2555   12.5065 N.ar    1  UNL1       -0.2325
     12 C          62.4045   87.7743   11.3802 C.ar    1  UNL1        0.1465
     13 C          59.8068   86.3307    8.0010 C.2     1  UNL1        0.0774
     14 O          60.3515   85.3547    7.0005 O.co2   1  UNL1       -0.5444
     15 O          58.3964   86.8254    7.8751 O.co2   1  UNL1       -0.5444
     16 C          62.7943   83.8618   11.8028 C.3     1  UNL1        0.0265
     17 C          62.7626   85.3199   12.1533 C.3     1  UNL1        0.1076
@<TRIPOS>UNITY_ATOM_ATTR
14 1
charge -1
@<TRIPOS>BOND
     1    16    17    1
     2    17     1    1
     3     1     2   ar
     4     2     3   ar
     5     3    13    1
     6    13    14   ar
     7    13    15   ar
     8     3     4   ar
     9     4     5    2
    10     4     6   ar
    11     6     7   ar
    12     7     8   ar
    13     8     9   ar
    14     9    10    1
    15     9    11   ar
    16    11    12   ar
    17    12     1   ar
    18    12     6   ar
@<TRIPOS>MOLECULE
*****
 17 18 0 0 0
SMALL
GASTEIGER

@<TRIPOS>ATOM
      1 N          64.2387   89.9527   14.0838 N.ar    1  UNL1       -0.3113
      2 C          65.2984   90.9721   14.3801 C.ar    1  UNL1        0.0813
      3 C          65.6345   92.0219   13.3628 C.ar    1  UNL1        0.0702
      4 C          64.9111   92.0522   12.0491 C.ar    1  UNL1        0.2010
      5 O          65.2473   93.1020   11.0318 O.2     1  UNL1       -0.2864
      6 C          63.8514   91.0327   11.7528 C.ar    1  UNL1        0.0731
      7 C          63.1279   91.0631   10.4392 C.ar    1  UNL1        0.0074
      8 C          62.0683   90.0436   10.1429 C.ar    1  UNL1        0.0150
      9 C          61.7322   88.9938   11.1602 C.ar    1  UNL1        0.0610
     10 C          60.6725   87.9743   10.8638 C.3     1  UNL1        0.0521
     11 N          62.4556   88.9635   12.4738 N.ar    1  UNL1       -0.2325
     12 C          63.5152   89.9830   12.7701 C.ar    1  UNL1        0.1465
     13 C          66.6942   93.0414   13.6591 C.2     1  UNL1        0.0774
     14 O          66.3114   94.4699   13.9099 O.co2   1  UNL1       -0.5444
     15 O          68.1366   92.6324   13.7047 O.co2   1  UNL1       -0.5444
     16 C          63.2079   89.2870   16.3738 C.3     1  UNL1        0.0265
     17 C          63.9026   88.9029   15.1011 C.3     1  UNL1        0.1076
@<TRIPOS>UNITY_ATOM_ATTR
14 1
charge -1
@<TRIPOS>BOND
     1    16    17    1
     2    17     1    1
     3     1     2   ar
     4     2     3   ar
     5     3    13    1
     6    13    14   ar
     7    13    15   ar
     8     3     4   ar
     9     4     5    2
    10     4     6   ar
    11     6     7   ar
    12     7     8   ar
    13     8     9   ar
    14     9    10    1
    15     9    11   ar
    16    11    12   ar
    17    12     1   ar
    18    12     6   ar
@<TRIPOS>MOLECULE
*****
 17 18 0 0 0
SMALL
GASTEIGER

@<TRIPOS>ATOM
      1 N          66.2542   92.6531   14.5187 N.ar    1  UNL1       -0.3113
      2 C          65.5296   91.5671   15.2571 C.ar    1  UNL1        0.0813
      3 C          64.5234   90.7156   14.5411 C.ar    1  UNL1        0.0702
      4 C          64.2419   90.9502   13.0866 C.ar    1  UNL1        0.2010
      5 O          63.2358   90.0988   12.3705 O.2     1  UNL1       -0.2864
      6 C          64.9666   92.0363   12.3480 C.ar    1  UNL1        0.0731
      7 C          64.6851   92.2709   10.8935 C.ar    1  UNL1        0.0074
      8 C          65.4097   93.3570   10.1551 C.ar    1  UNL1        0.0150
      9 C          66.4159   94.2084   10.8711 C.ar    1  UNL1        0.0610
     10 C          67.1405   95.2945   10.1326 C.3     1  UNL1        0.0521
     11 N          66.6974   93.9738   12.3256 N.ar    1  UNL1       -0.2325
     12 C          65.9727   92.8878   13.0641 C.ar    1  UNL1        0.1465
     13 C          63.7988   89.6296   15.2796 C.2     1  UNL1        0.0774
     14 O          64.0024   88.1947   14.8927 O.co2   1  UNL1       -0.5444
     15 O          62.8705   89.9783   16.4051 O.co2   1  UNL1       -0.5444
     16 C          68.5813   92.9222   15.6421 C.3     1  UNL1        0.0265
     17 C          67.2604   93.5045   15.2347 C.3     1  UNL1        0.1076
@<TRIPOS>UNITY_ATOM_ATTR
14 1
charge -1
@<TRIPOS>BOND
     1    16    17    1
     2    17     1    1
     3     1     2   ar
     4     2     3   ar
     5     3    13    1
     6    13    14   ar
     7    13    15   ar
     8     3     4   ar
     9     4     5    2
    10     4     6   ar
    11     6     7   ar
    12     7     8   ar
    13     8     9   ar
    14     9    10    1
    15     9    11   ar
    16    11    12   ar
    17    12     1   ar
    18    12     6   ar
@<TRIPOS>MOLECULE
*****
 17 18 0 0 0
SMALL
GASTEIGER

@<TRIPOS>ATOM
      1 N          62.4817   85.0567   11.6001 N.ar    1  UNL1       -0.3113
      2 C          62.4005   83.5661   11.7464 C.ar    1  UNL1        0.0813
      3 C          62.9751   82.8993   12.9610 C.ar    1  UNL1        0.0702
      4 C          63.6310   83.7231   14.0292 C.ar    1  UNL1        0.2010
      5 O          64.2057   83.0563   15.2437 O.2     1  UNL1       -0.2864
      6 C          63.7123   85.2138   13.8829 C.ar    1  UNL1        0.0731
      7 C          64.3682   86.0376   14.9511 C.ar    1  UNL1        0.0074
      8 C          64.4494   87.5282   14.8048 C.ar    1  UNL1        0.0150
      9 C          63.8747   88.1950   13.5902 C.ar    1  UNL1        0.0610
     10 C          63.9559   89.6857   13.4439 C.3     1  UNL1        0.0521
     11 N          63.2188   87.3712   12.5220 N.ar    1  UNL1       -0.2325
     12 C          63.1376   85.8806   12.6683 C.ar    1  UNL1        0.1465
     13 C          62.8939   81.4086   13.1073 C.2     1  UNL1        0.0774
     14 O          62.9989   80.5294   11.8965 O.co2   1  UNL1       -0.5444
     15 O          62.7077   80.7972   14.4643 O.co2   1  UNL1       -0.5444
     16 C          62.6469   85.6736    9.0818 C.3     1  UNL1        0.0265
     17 C          61.9070   85.7235   10.3856 C.3     1  UNL1        0.1076
@<TRIPOS>UNITY_ATOM_ATTR
14 1
charge -1
@<TRIPOS>BOND
     1    16    17    1
     2    17     1    1
     3     1     2   ar
     4     2     3   ar
     5     3    13    1
     6    13    14   ar
     7    13    15   ar
     8     3     4   ar
     9     4     5    2
    10     4     6   ar
    11     6     7   ar
    12     7     8   ar
    13     8     9   ar
    14     9    10    1
    15     9    11   ar
    16    11    12   ar
    17    12     1   ar
    18    12     6   ar
@<TRIPOS>MOLECULE
*****
 17 18 0 0 0
SMALL
GASTEIGER

@<TRIPOS>ATOM
      1 N          65.5708   92.3970   11.5328 N.ar    1  UNL1       -0.3113
      2 C          64.4059   91.6365   10.9720 C.ar    1  UNL1        0.0813
      3 C          63.5022   90.8657   11.8882 C.ar    1  UNL1        0.0702
      4 C          63.7635   90.8555   13.3652 C.ar    1  UNL1        0.2010
      5 O          62.8599   90.0847   14.2814 O.2     1  UNL1       -0.2864
      6 C          64.9285   91.6160   13.9261 C.ar    1  UNL1        0.0731
      7 C          65.1897   91.6058   15.4031 C.ar    1  UNL1        0.0074
      8 C          66.3546   92.3664   15.9639 C.ar    1  UNL1        0.0150
      9 C          67.2582   93.1371   15.0477 C.ar    1  UNL1        0.0610
     10 C          68.4232   93.8977   15.6086 C.3     1  UNL1        0.0521
     11 N          66.9970   93.1474   13.5707 N.ar    1  UNL1       -0.2325
     12 C          65.8321   92.3868   13.0099 C.ar    1  UNL1        0.1465
     13 C          62.3373   90.1051   11.3273 C.2     1  UNL1        0.0774
     14 O          61.0711   90.8269   10.9727 O.co2   1  UNL1       -0.5444
     15 O          62.4386   88.6229   11.1210 O.co2   1  UNL1       -0.5444
     16 C          67.6772   92.5030   10.0157 C.3     1  UNL1        0.0265
     17 C          66.4744   93.1678   10.6166 C.3     1  UNL1        0.1076
@<TRIPOS>UNITY_ATOM_ATTR
14 1
charge -1
@<TRIPOS>BOND
     1    16    17    1
     2    17     1    1
     3     1     2   ar
     4     2     3   ar
     5     3    13    1
     6    13    14   ar
     7    13    15   ar
     8     3     4   ar
     9     4     5    2
    10     4     6   ar
    11     6     7   ar
    12     7     8   ar
    13     8     9   ar
    14     9    10    1
    15     9    11   ar
    16    11    12   ar
    17    12     1   ar
    18    12     6   ar
@<TRIPOS>MOLECULE
*****
 17 18 0 0 0
SMALL
GASTEIGER

@<TRIPOS>ATOM
      1 N          63.9520   89.7572   13.9937 N.ar    1  UNL1       -0.3113
      2 C          63.0255   89.2832   12.9135 C.ar    1  UNL1        0.0813
      3 C          62.9392   90.0327   11.6171 C.ar    1  UNL1        0.0702
      4 C          63.7794   91.2563   11.4008 C.ar    1  UNL1        0.2010
      5 O          63.6931   92.0058   10.1043 O.2     1  UNL1       -0.2864
      6 C          64.7060   91.7304   12.4810 C.ar    1  UNL1        0.0731
      7 C          65.5462   92.9540   12.2647 C.ar    1  UNL1        0.0074
      8 C          66.4726   93.4281   13.3449 C.ar    1  UNL1        0.0150
      9 C          66.5589   92.6786   14.6413 C.ar    1  UNL1        0.0610
     10 C          67.4855   93.1528   15.7215 C.3     1  UNL1        0.0521
     11 N          65.7187   91.4550   14.8576 N.ar    1  UNL1       -0.2325
     12 C          64.7923   90.9809   13.7774 C.ar    1  UNL1        0.1465
     13 C          62.0127   89.5585   10.5369 C.2     1  UNL1        0.0774
     14 O          62.3384   88.3167    9.7612 O.co2   1  UNL1       -0.5444
     15 O          60.7605   90.3262   10.2324 O.co2   1  UNL1       -0.5444
     16 C          63.1477   89.3865   16.4362 C.3     1  UNL1        0.0265
     17 C          64.0383   89.0077   15.2901 C.3     1  UNL1        0.1076
@<TRIPOS>UNITY_ATOM_ATTR
14 1
charge -1
@<TRIPOS>BOND
     1    16    17    1
     2    17     1    1
     3     1     2   ar
     4     2     3   ar
     5     3    13    1
     6    13    14   ar
     7    13    15   ar
     8     3     4   ar
     9     4     5    2
    10     4     6   ar
    11     6     7   ar
    12     7     8   ar
    13     8     9   ar
    14     9    10    1
    15     9    11   ar
    16    11    12   ar
    17    12     1   ar
    18    12     6   ar
@<TRIPOS>MOLECULE
*****
 17 18 0 0 0
SMALL
GASTEIGER

@<TRIPOS>ATOM
      1 N          63.8273   87.5093   13.6648 N.ar    1  UNL1       -0.3113
      2 C          64.4079   88.5656   14.5575 C.ar    1  UNL1        0.0813
      3 C          64.3074   90.0117   14.1720 C.ar    1  UNL1        0.0702
      4 C          63.6262   90.4015   12.8937 C.ar    1  UNL1        0.2010
      5 O          63.5257   91.8476   12.5082 O.2     1  UNL1       -0.2864
      6 C          63.0456   89.3452   12.0009 C.ar    1  UNL1        0.0731
      7 C          62.3644   89.7350   10.7226 C.ar    1  UNL1        0.0074
      8 C          61.7838   88.6786    9.8299 C.ar    1  UNL1        0.0150
      9 C          61.8843   87.2325   10.2154 C.ar    1  UNL1        0.0610
     10 C          61.3037   86.1762    9.3226 C.3     1  UNL1        0.0521
     11 N          62.5655   86.8427   11.4937 N.ar    1  UNL1       -0.2325
     12 C          63.1461   87.8991   12.3865 C.ar    1  UNL1        0.1465
     13 C          64.8881   91.0681   15.0648 C.2     1  UNL1        0.0774
     14 O          66.3492   91.3977   14.9846 O.co2   1  UNL1       -0.5444
     15 O          64.0076   91.7947   16.0378 O.co2   1  UNL1       -0.5444
     16 C          64.8336   85.6470   15.1712 C.3     1  UNL1        0.0265
     17 C          63.9278   86.0632   14.0504 C.3     1  UNL1        0.1076
@<TRIPOS>UNITY_ATOM_ATTR
14 1
charge -1
@<TRIPOS>BOND
     1    16    17    1
     2    17     1    1
     3     1     2   ar
     4     2     3   ar
     5     3    13    1
     6    13    14   ar
     7    13    15   ar
     8     3     4   ar
     9     4     5    2
    10     4     6   ar
    11     6     7   ar
    12     7     8   ar
    13     8     9   ar
    14     9    10    1
    15     9    11   ar
    16    11    12   ar
    17    12     1   ar
    18    12     6   ar
@<TRIPOS>MOLECULE
*****
 17 18 0 0 0
SMALL
GASTEIGER

@<TRIPOS>ATOM
      1 N          63.6364   84.9524   14.4394 N.ar    1  UNL1       -0.3113
      2 C          63.6531   83.4734   14.6884 C.ar    1  UNL1        0.0813
      3 C          63.2134   82.5265   13.6113 C.ar    1  UNL1        0.0702
      4 C          62.7570   83.0587   12.2853 C.ar    1  UNL1        0.2010
      5 O          62.3173   82.1118   11.2082 O.2     1  UNL1       -0.2864
      6 C          62.7402   84.5378   12.0363 C.ar    1  UNL1        0.0731
      7 C          62.2838   85.0700   10.7102 C.ar    1  UNL1        0.0074
      8 C          62.2671   86.5491   10.4613 C.ar    1  UNL1        0.0150
      9 C          62.7068   87.4960   11.5384 C.ar    1  UNL1        0.0610
     10 C          62.6900   88.9751   11.2894 C.3     1  UNL1        0.0521
     11 N          63.1632   86.9638   12.8644 N.ar    1  UNL1       -0.2325
     12 C          63.1799   85.4847   13.1134 C.ar    1  UNL1        0.1465
     13 C          63.2301   81.0473   13.8603 C.2     1  UNL1        0.0774
     14 O          62.0206   80.2194   13.5416 O.co2   1  UNL1       -0.5444
     15 O          64.4563   80.3962   14.4280 O.co2   1  UNL1       -0.5444
     16 C          63.2678   86.0335   16.7729 C.3     1  UNL1        0.0265
     17 C          64.0760   85.8993   15.5165 C.3     1  UNL1        0.1076
@<TRIPOS>UNITY_ATOM_ATTR
14 1
charge -1
@<TRIPOS>BOND
     1    16    17    1
     2    17     1    1
     3     1     2   ar
     4     2     3   ar
     5     3    13    1
     6    13    14   ar
     7    13    15   ar
     8     3     4   ar
     9     4     5    2
    10     4     6   ar
    11     6     7   ar
    12     7     8   ar
    13     8     9   ar
    14     9    10    1
    15     9    11   ar
    16    11    12   ar
    17    12     1   ar
    18    12     6   ar
@<TRIPOS>MOLECULE
*****
 17 18 0 0 0
SMALL
GASTEIGER

@<TRIPOS>ATOM
      1 N          61.9375   89.2590   10.9145 N.ar    1  UNL1       -0.3113
      2 C          61.0630   89.4867    9.7173 C.ar    1  UNL1        0.0813
      3 C          60.5054   88.3166    8.9624 C.ar    1  UNL1        0.0702
      4 C          60.8223   86.9188    9.4046 C.ar    1  UNL1        0.2010
      5 O          60.2647   85.7487    8.6497 O.2     1  UNL1       -0.2864
      6 C          61.6968   86.6910   10.6019 C.ar    1  UNL1        0.0731
      7 C          62.0137   85.2932   11.0441 C.ar    1  UNL1        0.0074
      8 C          62.8883   85.0655   12.2413 C.ar    1  UNL1        0.0150
      9 C          63.4459   86.2356   12.9963 C.ar    1  UNL1        0.0610
     10 C          64.3204   86.0078   14.1935 C.3     1  UNL1        0.0521
     11 N          63.1290   87.6334   12.5540 N.ar    1  UNL1       -0.2325
     12 C          62.2544   87.8611   11.3568 C.ar    1  UNL1        0.1465
     13 C          59.6308   88.5443    7.7651 C.2     1  UNL1        0.0774
     14 O          59.9568   89.6420    6.7962 O.co2   1  UNL1       -0.5444
     15 O          58.4303   87.6744    7.5368 O.co2   1  UNL1       -0.5444
     16 C          63.5689   91.2762   11.0535 C.3     1  UNL1        0.0265
     17 C          62.4951   90.4291   11.6694 C.3     1  UNL1        0.1076
@<TRIPOS>UNITY_ATOM_ATTR
14 1
charge -1
@<TRIPOS>BOND
     1    16    17    1
     2    17     1    1
     3     1     2   ar
     4     2     3   ar
     5     3    13    1
     6    13    14   ar
     7    13    15   ar
     8     3     4   ar
     9     4     5    2
    10     4     6   ar
    11     6     7   ar
    12     7     8   ar
    13     8     9   ar
    14     9    10    1
    15     9    11   ar
    16    11    12   ar
    17    12     1   ar
    18    12     6   ar
