@<TRIPOS>MOLECULE
*****
 34 37 0 0 0
SMALL
GASTEIGER

@<TRIPOS>ATOM
      1 C          63.1328   86.9399   13.1138 C.ar    1  UNL1        0.0502
      2 C          63.9706   87.4555   14.2462 C.ar    1  UNL1        0.0143
      3 C          64.5328   88.8450   14.1910 C.ar    1  UNL1       -0.0030
      4 C          64.2573   89.7189   13.0035 C.ar    1  UNL1       -0.0223
      5 C          63.4196   89.2034   11.8711 C.ar    1  UNL1       -0.0034
      6 C          62.8573   87.8139   11.9263 C.ar    1  UNL1        0.0089
      7 C          64.8196   91.1085   12.9483 C.3     1  UNL1        0.0251
      8 C          64.7148   91.9104   11.6850 C.3     1  UNL1        0.0217
      9 C          65.2771   93.3000   11.6299 C.3     1  UNL1        0.0725
     10 N          65.9442   93.8876   12.8381 N.3     1  UNL1       -0.2706
     11 C          66.0489   93.0856   14.1014 C.3     1  UNL1        0.0725
     12 C          65.4867   91.6961   14.1565 C.3     1  UNL1        0.0217
     13 C          66.5064   95.2771   12.7830 C.3     1  UNL1        0.1042
     14 C          66.2665   96.1360   11.5769 C.3     1  UNL1        0.1544
     15 O          64.9599   96.8550   11.4161 O.3     1  UNL1       -0.3805
     16 H          64.2470   96.2078   11.2989 H       1  UNL1        0.2105
     17 C          62.0195   87.2983   10.7938 C.2     1  UNL1       -0.0253
     18 C          60.5976   87.7523   10.6456 C.2     1  UNL1       -0.0303
     19 C          59.7598   87.2368    9.5133 C.3     1  UNL1        0.0257
     20 C          60.3439   86.2671    8.5291 C.3     1  UNL1        0.0050
     21 C          61.7658   85.8130    8.6773 C.3     1  UNL1        0.0050
     22 C          62.6036   86.3286    9.8097 C.3     1  UNL1        0.0261
     23 C          63.4523   84.3992   13.5526 C.2     1  UNL1        0.2837
     24 O          64.8964   84.6376   13.8812 O.2     1  UNL1       -0.2665
     25 N          62.5705   85.5503   13.1689 N.am    1  UNL1       -0.2779
     26 H          61.6228   85.3939   12.9533 H       1  UNL1        0.1553
     27 C          61.3707   81.1457   13.9359 C.ar    1  UNL1        0.1469
     28 C          62.6792   80.5969   13.4494 C.ar    1  UNL1        0.1282
     29 N          63.6182   81.7489   13.2466 N.ar    1  UNL1       -0.2205
     30 C          62.8901   83.0096   13.6078 C.ar    1  UNL1        0.1958
     31 N          61.5011   82.6368   14.0338 N.ar    1  UNL1       -0.3257
     32 H          60.7983   83.2612   14.3263 H       1  UNL1        0.1682
     33 N          58.9227   79.5425   14.5971 N.1     1  UNL1       -0.1893
     34 C          60.1467   80.3441   14.2665 C.1     1  UNL1        0.1194
@<TRIPOS>BOND
     1    33    34    3
     2    34    27    1
     3    27    28   ar
     4    28    29   ar
     5    29    30   ar
     6    30    23    1
     7    23    24    2
     8    23    25   am
     9    25     1    1
    10     1     2   ar
    11     2     3   ar
    12     3     4   ar
    13     4     7    1
    14     7     8    1
    15     8     9    1
    16     9    10    1
    17    10    13    1
    18    13    14    1
    19    14    15    1
    20    10    11    1
    21    11    12    1
    22     4     5   ar
    23     5     6   ar
    24     6    17    1
    25    17    18    2
    26    18    19    1
    27    19    20    1
    28    20    21    1
    29    21    22    1
    30    30    31   ar
    31    31    27   ar
    32     6     1   ar
    33    22    17    1
    34    12     7    1
    35    25    26    1
    36    15    16    1
    37    31    32    1
@<TRIPOS>MOLECULE
*****
 34 37 0 0 0
SMALL
GASTEIGER

@<TRIPOS>ATOM
      1 C          63.3555   88.2927   12.6695 C.ar    1  UNL1        0.0502
      2 C          64.2424   88.9524   13.6835 C.ar    1  UNL1        0.0143
      3 C          64.7882   90.3250   13.4224 C.ar    1  UNL1       -0.0030
      4 C          64.4471   91.0378   12.1474 C.ar    1  UNL1       -0.0223
      5 C          63.5602   90.3780   11.1335 C.ar    1  UNL1       -0.0034
      6 C          63.0144   89.0054   11.3945 C.ar    1  UNL1        0.0089
      7 C          64.9929   92.4104   11.8864 C.3     1  UNL1        0.0251
      8 C          64.7707   93.0652   10.5554 C.3     1  UNL1        0.0217
      9 C          65.3166   94.4379   10.2944 C.3     1  UNL1        0.0725
     10 N          66.0845   95.1556   11.3645 N.3     1  UNL1       -0.2706
     11 C          66.3066   94.5007   12.6956 C.3     1  UNL1        0.0725
     12 C          65.7608   93.1281   12.9566 C.3     1  UNL1        0.0217
     13 C          66.6303   96.5281   11.1035 C.3     1  UNL1        0.1042
     14 C          67.2385   96.8526    9.7713 C.3     1  UNL1        0.1544
     15 O          67.9775   95.7946    9.0066 O.3     1  UNL1       -0.3805
     16 H          68.7779   95.5433    9.4935 H       1  UNL1        0.2105
     17 C          62.1275   88.3456   10.3806 C.2     1  UNL1       -0.0253
     18 C          60.9340   89.0758    9.8398 C.2     1  UNL1       -0.0303
     19 C          60.0472   88.4160    8.8259 C.3     1  UNL1        0.0257
     20 C          60.3537   87.0260    8.3527 C.3     1  UNL1        0.0050
     21 C          61.5472   86.2958    8.8934 C.3     1  UNL1        0.0050
     22 C          62.4341   86.9556    9.9074 C.3     1  UNL1        0.0261
     23 C          63.6093   85.9345   13.7301 C.2     1  UNL1        0.2837
     24 O          64.9548   86.3216   14.2687 O.2     1  UNL1       -0.2665
     25 N          62.8097   86.9200   12.9305 N.am    1  UNL1       -0.2779
     26 H          61.9267   86.6660   12.5770 H       1  UNL1        0.1553
     27 C          62.5583   82.1984   13.7704 C.ar    1  UNL1        0.1469
     28 C          61.8892   82.7011   15.0153 C.ar    1  UNL1        0.1282
     29 N          62.2016   84.1619   15.1517 N.ar    1  UNL1       -0.2205
     30 C          63.0636   84.5619   13.9912 C.ar    1  UNL1        0.1958
     31 N          63.2841   83.3485   13.1375 N.ar    1  UNL1       -0.3257
     32 H          63.8123   83.3130   12.3075 H       1  UNL1        0.1682
     33 N          62.4617   79.3865   12.7293 N.1     1  UNL1       -0.1893
     34 C          62.5100   80.7924   13.2498 C.1     1  UNL1        0.1194
@<TRIPOS>BOND
     1    33    34    3
     2    34    27    1
     3    27    28   ar
     4    28    29   ar
     5    29    30   ar
     6    30    23    1
     7    23    24    2
     8    23    25   am
     9    25     1    1
    10     1     2   ar
    11     2     3   ar
    12     3     4   ar
    13     4     7    1
    14     7     8    1
    15     8     9    1
    16     9    10    1
    17    10    13    1
    18    13    14    1
    19    14    15    1
    20    10    11    1
    21    11    12    1
    22     4     5   ar
    23     5     6   ar
    24     6    17    1
    25    17    18    2
    26    18    19    1
    27    19    20    1
    28    20    21    1
    29    21    22    1
    30    30    31   ar
    31    31    27   ar
    32     6     1   ar
    33    22    17    1
    34    12     7    1
    35    25    26    1
    36    15    16    1
    37    31    32    1
@<TRIPOS>MOLECULE
*****
 34 37 0 0 0
SMALL
GASTEIGER

@<TRIPOS>ATOM
      1 C          60.6086   87.4991    9.8066 C.ar    1  UNL1        0.0502
      2 C          59.6846   87.0256    8.7240 C.ar    1  UNL1        0.0143
      3 C          59.3877   87.9118    7.5508 C.ar    1  UNL1       -0.0030
      4 C          60.0148   89.2714    7.4601 C.ar    1  UNL1       -0.0223
      5 C          60.9388   89.7448    8.5426 C.ar    1  UNL1       -0.0034
      6 C          61.2357   88.8587    9.7159 C.ar    1  UNL1        0.0089
      7 C          59.7179   90.1575    6.2867 C.3     1  UNL1        0.0251
      8 C          60.8341   90.6337    5.4051 C.3     1  UNL1        0.0217
      9 C          60.5371   91.5198    4.2317 C.3     1  UNL1        0.0725
     10 N          59.1240   91.9297    3.9401 N.3     1  UNL1       -0.2706
     11 C          58.0078   91.4535    4.8218 C.3     1  UNL1        0.0725
     12 C          58.3048   90.5674    5.9951 C.3     1  UNL1        0.0217
     13 C          58.8271   92.8158    2.7668 C.3     1  UNL1        0.1042
     14 C          59.8135   92.9270    1.6423 C.3     1  UNL1        0.1544
     15 O          59.6173   92.1242    0.3905 O.3     1  UNL1       -0.3805
     16 H          59.7089   91.1802    0.5940 H       1  UNL1        0.2105
     17 C          62.1598   89.3322   10.7986 C.2     1  UNL1       -0.0253
     18 C          62.6576   88.3681   11.8343 C.2     1  UNL1       -0.0303
     19 C          63.5816   88.8415   12.9169 C.3     1  UNL1        0.0257
     20 C          64.0078   90.2790   12.9638 C.3     1  UNL1        0.0050
     21 C          63.5100   91.2430   11.9280 C.3     1  UNL1        0.0050
     22 C          62.5859   90.7695   10.8454 C.3     1  UNL1        0.0261
     23 C          61.9815   85.5725   10.8807 C.2     1  UNL1        0.2837
     24 O          62.7605   85.4183    9.6081 O.2     1  UNL1       -0.2665
     25 N          60.9055   86.6130   10.9799 N.am    1  UNL1       -0.2779
     26 H          60.3942   86.7142   11.8151 H       1  UNL1        0.1553
     27 C          62.7789   82.7307   13.4012 C.ar    1  UNL1        0.1469
     28 C          62.6919   83.9149   14.3177 C.ar    1  UNL1        0.1282
     29 N          62.3826   85.1237   13.4851 N.ar    1  UNL1       -0.2205
     30 C          62.2784   84.6864   12.0540 C.ar    1  UNL1        0.1958
     31 N          62.5233   83.2075   12.0021 N.ar    1  UNL1       -0.3257
     32 H          62.5174   82.6480   11.1921 H       1  UNL1        0.1682
     33 N          63.3616   79.9046   14.2222 N.1     1  UNL1       -0.1893
     34 C          63.0703   81.3176   13.8117 C.1     1  UNL1        0.1194
@<TRIPOS>BOND
     1    33    34    3
     2    34    27    1
     3    27    28   ar
     4    28    29   ar
     5    29    30   ar
     6    30    23    1
     7    23    24    2
     8    23    25   am
     9    25     1    1
    10     1     2   ar
    11     2     3   ar
    12     3     4   ar
    13     4     7    1
    14     7     8    1
    15     8     9    1
    16     9    10    1
    17    10    13    1
    18    13    14    1
    19    14    15    1
    20    10    11    1
    21    11    12    1
    22     4     5   ar
    23     5     6   ar
    24     6    17    1
    25    17    18    2
    26    18    19    1
    27    19    20    1
    28    20    21    1
    29    21    22    1
    30    30    31   ar
    31    31    27   ar
    32     6     1   ar
    33    22    17    1
    34    12     7    1
    35    25    26    1
    36    15    16    1
    37    31    32    1
@<TRIPOS>MOLECULE
*****
 34 37 0 0 0
SMALL
GASTEIGER

@<TRIPOS>ATOM
      1 C          63.3815   86.0450   12.8225 C.ar    1  UNL1        0.0502
      2 C          64.0323   84.9820   13.6570 C.ar    1  UNL1        0.0143
      3 C          63.9014   83.5390   13.2690 C.ar    1  UNL1       -0.0030
      4 C          63.1197   83.1590   12.0465 C.ar    1  UNL1       -0.0223
      5 C          62.4689   84.2220   11.2120 C.ar    1  UNL1       -0.0034
      6 C          62.5998   85.6650   11.6000 C.ar    1  UNL1        0.0089
      7 C          62.9888   81.7159   11.6585 C.3     1  UNL1        0.0251
      8 C          63.1841   81.3027   10.2299 C.3     1  UNL1        0.0217
      9 C          63.0532   79.8596    9.8419 C.3     1  UNL1        0.0725
     10 N          62.7270   78.8298   10.8826 N.3     1  UNL1       -0.2706
     11 C          62.5318   79.2431   12.3113 C.3     1  UNL1        0.0725
     12 C          62.6627   80.6861   12.6992 C.3     1  UNL1        0.0217
     13 C          62.5962   77.3868   10.4947 C.3     1  UNL1        0.1042
     14 C          63.8235   76.5711   10.2149 C.3     1  UNL1        0.1544
     15 O          64.7078   76.9203    9.0546 O.3     1  UNL1       -0.3805
     16 H          64.2251   76.7769    8.2256 H       1  UNL1        0.2105
     17 C          61.9490   86.7281   10.7655 C.2     1  UNL1       -0.0253
     18 C          62.3838   88.1574   10.8992 C.2     1  UNL1       -0.0303
     19 C          61.7330   89.2205   10.0647 C.3     1  UNL1        0.0257
     20 C          60.6474   88.8542    9.0965 C.3     1  UNL1        0.0050
     21 C          60.2126   87.4249    8.9628 C.3     1  UNL1        0.0050
     22 C          60.8635   86.3618    9.7973 C.3     1  UNL1        0.0261
     23 C          64.2699   87.8660   14.4488 C.2     1  UNL1        0.2837
     24 O          64.8965   86.8008   15.2991 O.2     1  UNL1       -0.2665
     25 N          63.5124   87.4880   13.2105 N.am    1  UNL1       -0.2779
     26 H          63.1011   88.1871   12.6524 H       1  UNL1        0.1553
     27 C          65.1634   91.6106   14.9430 C.ar    1  UNL1        0.1469
     28 C          64.0410   91.4485   15.9249 C.ar    1  UNL1        0.1282
     29 N          63.5697   90.0260   15.8592 N.ar    1  UNL1       -0.2205
     30 C          64.4008   89.3090   14.8368 C.ar    1  UNL1        0.1958
     31 N          65.3857   90.2883   14.2706 N.ar    1  UNL1       -0.3257
     32 H          66.0598   90.0969   13.5790 H       1  UNL1        0.1682
     33 N          66.6947   94.1361   14.4166 N.1     1  UNL1       -0.1893
     34 C          65.9291   92.8734   14.6798 C.1     1  UNL1        0.1194
@<TRIPOS>BOND
     1    33    34    3
     2    34    27    1
     3    27    28   ar
     4    28    29   ar
     5    29    30   ar
     6    30    23    1
     7    23    24    2
     8    23    25   am
     9    25     1    1
    10     1     2   ar
    11     2     3   ar
    12     3     4   ar
    13     4     7    1
    14     7     8    1
    15     8     9    1
    16     9    10    1
    17    10    13    1
    18    13    14    1
    19    14    15    1
    20    10    11    1
    21    11    12    1
    22     4     5   ar
    23     5     6   ar
    24     6    17    1
    25    17    18    2
    26    18    19    1
    27    19    20    1
    28    20    21    1
    29    21    22    1
    30    30    31   ar
    31    31    27   ar
    32     6     1   ar
    33    22    17    1
    34    12     7    1
    35    25    26    1
    36    15    16    1
    37    31    32    1
@<TRIPOS>MOLECULE
*****
 34 37 0 0 0
SMALL
GASTEIGER

@<TRIPOS>ATOM
      1 C          63.0837   86.2136   13.4401 C.ar    1  UNL1        0.0502
      2 C          63.8959   86.5479   14.6561 C.ar    1  UNL1        0.0143
      3 C          64.5163   87.9066   14.7933 C.ar    1  UNL1       -0.0030
      4 C          64.3245   88.9311   13.7145 C.ar    1  UNL1       -0.0223
      5 C          63.5123   88.5968   12.4986 C.ar    1  UNL1       -0.0034
      6 C          62.8920   87.2380   12.3614 C.ar    1  UNL1        0.0089
      7 C          64.9449   90.2899   13.8518 C.3     1  UNL1        0.0251
      8 C          65.5263   90.7197   15.1660 C.3     1  UNL1        0.0217
      9 C          66.1467   92.0785   15.3032 C.3     1  UNL1        0.0725
     10 N          66.1857   93.0075   14.1262 N.3     1  UNL1       -0.2706
     11 C          65.6043   92.5777   12.8119 C.3     1  UNL1        0.0725
     12 C          64.9839   91.2189   12.6747 C.3     1  UNL1        0.0217
     13 C          66.8061   94.3663   14.2634 C.3     1  UNL1        0.1042
     14 C          67.9942   94.5614   15.1579 C.3     1  UNL1        0.1544
     15 O          69.1289   93.5809   15.1223 O.3     1  UNL1       -0.3805
     16 H          68.8221   92.7194   15.4456 H       1  UNL1        0.2105
     17 C          62.0797   86.9037   11.1453 C.2     1  UNL1       -0.0253
     18 C          62.6016   85.9174   10.1428 C.2     1  UNL1       -0.0303
     19 C          61.7894   85.5831    8.9269 C.3     1  UNL1        0.0257
     20 C          60.4554   86.2349    8.7134 C.3     1  UNL1        0.0050
     21 C          59.9336   87.2212    9.7159 C.3     1  UNL1        0.0050
     22 C          60.7458   87.5555   10.9319 C.3     1  UNL1        0.0261
     23 C          63.2117   83.6387   13.7623 C.2     1  UNL1        0.2837
     24 O          64.5806   83.7815   14.3590 O.2     1  UNL1       -0.2665
     25 N          62.4633   84.8548   13.3029 N.am    1  UNL1       -0.2779
     26 H          61.5649   84.7611   12.9112 H       1  UNL1        0.1553
     27 C          61.0544   80.4128   13.8302 C.ar    1  UNL1        0.1469
     28 C          62.2191   79.9651   12.9976 C.ar    1  UNL1        0.1282
     29 N          63.1690   81.1191   12.8708 N.ar    1  UNL1       -0.2205
     30 C          62.5914   82.2799   13.6251 C.ar    1  UNL1        0.1958
     31 N          61.2846   81.8434   14.2180 N.ar    1  UNL1       -0.3257
     32 H          60.6834   82.3984   14.7656 H       1  UNL1        0.1682
     33 N          58.6815   78.7405   14.5870 N.1     1  UNL1       -0.1893
     34 C          59.8680   79.5767   14.2086 C.1     1  UNL1        0.1194
@<TRIPOS>BOND
     1    33    34    3
     2    34    27    1
     3    27    28   ar
     4    28    29   ar
     5    29    30   ar
     6    30    23    1
     7    23    24    2
     8    23    25   am
     9    25     1    1
    10     1     2   ar
    11     2     3   ar
    12     3     4   ar
    13     4     7    1
    14     7     8    1
    15     8     9    1
    16     9    10    1
    17    10    13    1
    18    13    14    1
    19    14    15    1
    20    10    11    1
    21    11    12    1
    22     4     5   ar
    23     5     6   ar
    24     6    17    1
    25    17    18    2
    26    18    19    1
    27    19    20    1
    28    20    21    1
    29    21    22    1
    30    30    31   ar
    31    31    27   ar
    32     6     1   ar
    33    22    17    1
    34    12     7    1
    35    25    26    1
    36    15    16    1
    37    31    32    1
@<TRIPOS>MOLECULE
*****
 34 37 0 0 0
SMALL
GASTEIGER

@<TRIPOS>ATOM
      1 C          60.5576   87.8077    9.3787 C.ar    1  UNL1        0.0502
      2 C          59.7185   87.2959    8.2456 C.ar    1  UNL1        0.0143
      3 C          59.4271   88.1800    7.0694 C.ar    1  UNL1       -0.0030
      4 C          59.9748   89.5758    7.0263 C.ar    1  UNL1       -0.0223
      5 C          60.8139   90.0875    8.1594 C.ar    1  UNL1       -0.0034
      6 C          61.1053   89.2034    9.3356 C.ar    1  UNL1        0.0089
      7 C          59.6834   90.4598    5.8500 C.3     1  UNL1        0.0251
      8 C          60.8034   90.9328    4.9716 C.3     1  UNL1        0.0217
      9 C          60.5120   91.8169    3.7953 C.3     1  UNL1        0.0725
     10 N          59.1005   92.2279    3.4975 N.3     1  UNL1       -0.2706
     11 C          57.9804   91.7549    4.3761 C.3     1  UNL1        0.0725
     12 C          58.2719   90.8709    5.5523 C.3     1  UNL1        0.0217
     13 C          58.8090   93.1120    2.3213 C.3     1  UNL1        0.1042
     14 C          59.6735   93.0413    1.0976 C.3     1  UNL1        0.1544
     15 O          59.4593   91.9509    0.0899 O.3     1  UNL1       -0.3805
     16 H          59.6742   91.0939    0.4902 H       1  UNL1        0.2105
     17 C          61.9444   89.7151   10.4689 C.2     1  UNL1       -0.0253
     18 C          63.0232   90.7239   10.2072 C.2     1  UNL1       -0.0303
     19 C          63.8623   91.2356   11.3404 C.3     1  UNL1        0.0257
     20 C          63.6227   90.7385   12.7352 C.3     1  UNL1        0.0050
     21 C          62.5438   89.7297   12.9968 C.3     1  UNL1        0.0050
     22 C          61.7047   89.2180   11.8636 C.3     1  UNL1        0.0261
     23 C          61.9217   85.8794   10.4608 C.2     1  UNL1        0.2837
     24 O          62.7030   85.7192    9.1903 O.2     1  UNL1       -0.2665
     25 N          60.8490   86.9236   10.5550 N.am    1  UNL1       -0.2779
     26 H          60.3362   87.0287   11.3888 H       1  UNL1        0.1553
     27 C          62.5451   84.2130   13.9104 C.ar    1  UNL1        0.1469
     28 C          62.7783   83.0568   12.9836 C.ar    1  UNL1        0.1282
     29 N          62.5732   83.5403   11.5786 N.ar    1  UNL1       -0.2205
     30 C          62.2132   84.9953   11.6370 C.ar    1  UNL1        0.1958
     31 N          62.1958   85.4111   13.0781 N.ar    1  UNL1       -0.3257
     32 H          61.9912   86.3121   13.4180 H       1  UNL1        0.1682
     33 N          62.7425   84.1418   16.9031 N.1     1  UNL1       -0.1893
     34 C          62.6438   84.1774   15.4067 C.1     1  UNL1        0.1194
@<TRIPOS>BOND
     1    33    34    3
     2    34    27    1
     3    27    28   ar
     4    28    29   ar
     5    29    30   ar
     6    30    23    1
     7    23    24    2
     8    23    25   am
     9    25     1    1
    10     1     2   ar
    11     2     3   ar
    12     3     4   ar
    13     4     7    1
    14     7     8    1
    15     8     9    1
    16     9    10    1
    17    10    13    1
    18    13    14    1
    19    14    15    1
    20    10    11    1
    21    11    12    1
    22     4     5   ar
    23     5     6   ar
    24     6    17    1
    25    17    18    2
    26    18    19    1
    27    19    20    1
    28    20    21    1
    29    21    22    1
    30    30    31   ar
    31    31    27   ar
    32     6     1   ar
    33    22    17    1
    34    12     7    1
    35    25    26    1
    36    15    16    1
    37    31    32    1
@<TRIPOS>MOLECULE
*****
 34 37 0 0 0
SMALL
GASTEIGER

@<TRIPOS>ATOM
      1 C          61.3136   87.4888    8.7339 C.ar    1  UNL1        0.0502
      2 C          62.0557   86.3252    8.1463 C.ar    1  UNL1        0.0143
      3 C          62.5105   85.2021    9.0304 C.ar    1  UNL1       -0.0030
      4 C          62.2232   85.2426   10.5021 C.ar    1  UNL1       -0.0223
      5 C          61.4811   86.4062   11.0896 C.ar    1  UNL1       -0.0034
      6 C          61.0263   87.5293   10.2055 C.ar    1  UNL1        0.0089
      7 C          62.6781   84.1194   11.3862 C.3     1  UNL1        0.0251
      8 C          62.5398   84.2340   12.8754 C.3     1  UNL1        0.0217
      9 C          62.9947   83.1108   13.7595 C.3     1  UNL1        0.0725
     10 N          63.5879   81.8730   13.1544 N.3     1  UNL1       -0.2706
     11 C          63.7262   81.7585   11.6651 C.3     1  UNL1        0.0725
     12 C          63.2713   82.8817   10.7811 C.3     1  UNL1        0.0217
     13 C          64.0428   80.7499   14.0384 C.3     1  UNL1        0.1042
     14 C          63.1914   79.5246   14.1922 C.3     1  UNL1        0.1544
     15 O          61.8713   79.4349   13.4854 O.3     1  UNL1       -0.3805
     16 H          61.2651   80.1002   13.8470 H       1  UNL1        0.2105
     17 C          60.2842   88.6930   10.7931 C.2     1  UNL1       -0.0253
     18 C          60.6397   90.0921   10.3858 C.2     1  UNL1       -0.0303
     19 C          59.8976   91.2558   10.9733 C.3     1  UNL1        0.0257
     20 C          58.7999   91.0203   11.9681 C.3     1  UNL1        0.0050
     21 C          58.4444   89.6211   12.3755 C.3     1  UNL1        0.0050
     22 C          59.1865   88.4574   11.7879 C.3     1  UNL1        0.0261
     23 C          59.4929   88.5733    7.2308 C.2     1  UNL1        0.2837
     24 O          58.5820   87.4113    7.4960 O.2     1  UNL1       -0.2665
     25 N          60.8587   88.6120    7.8497 N.am    1  UNL1       -0.2779
     26 H          61.4566   89.3746    7.6757 H       1  UNL1        0.1553
     27 C          59.0513   91.5747    4.8098 C.ar    1  UNL1        0.1469
     28 C          57.6246   91.2747    5.1627 C.ar    1  UNL1        0.1282
     29 N          57.6164   90.1138    6.1125 N.ar    1  UNL1       -0.2205
     30 C          59.0380   89.6964    6.3467 C.ar    1  UNL1        0.1958
     31 N          59.9248   90.5993    5.5416 N.ar    1  UNL1       -0.3257
     32 H          60.9076   90.5588    5.5006 H       1  UNL1        0.1682
     33 N          59.9925   93.7448    2.9644 N.1     1  UNL1       -0.1893
     34 C          59.5219   92.6597    3.8871 C.1     1  UNL1        0.1194
@<TRIPOS>BOND
     1    33    34    3
     2    34    27    1
     3    27    28   ar
     4    28    29   ar
     5    29    30   ar
     6    30    23    1
     7    23    24    2
     8    23    25   am
     9    25     1    1
    10     1     2   ar
    11     2     3   ar
    12     3     4   ar
    13     4     7    1
    14     7     8    1
    15     8     9    1
    16     9    10    1
    17    10    13    1
    18    13    14    1
    19    14    15    1
    20    10    11    1
    21    11    12    1
    22     4     5   ar
    23     5     6   ar
    24     6    17    1
    25    17    18    2
    26    18    19    1
    27    19    20    1
    28    20    21    1
    29    21    22    1
    30    30    31   ar
    31    31    27   ar
    32     6     1   ar
    33    22    17    1
    34    12     7    1
    35    25    26    1
    36    15    16    1
    37    31    32    1
