@<TRIPOS>MOLECULE
*****
 31 35 0 0 0
SMALL
GASTEIGER

@<TRIPOS>ATOM
      1 O          63.3398   87.2149   12.9289 O.2     1  UNL1       -0.2699
      2 C          62.7634   86.4049   11.8056 C.2     1  UNL1        0.2506
      3 N          61.7484   87.0150   10.8849 N.am    1  UNL1       -0.2723
      4 C          61.1721   86.2050    9.7617 C.3     1  UNL1        0.1257
      5 C          60.1571   86.8151    8.8410 C.3     1  UNL1        0.1637
      6 O          59.7185   88.2352    9.0436 O.3     1  UNL1       -0.3502
      7 C          60.2949   89.0452   10.1668 C.3     1  UNL1        0.1622
      8 C          61.3099   88.4351   11.0875 C.3     1  UNL1        0.1096
      9 C          63.2020   84.9848   11.6031 C.ar    1  UNL1        0.0729
     10 C          63.3898   84.4486   10.2148 C.ar    1  UNL1        0.0061
     11 C          63.8284   83.0286   10.0123 C.ar    1  UNL1        0.0002
     12 C          64.0791   82.1447   11.1979 C.ar    1  UNL1        0.0016
     13 C          63.8912   82.6809   12.5862 C.ar    1  UNL1        0.0211
     14 C          63.4527   84.1009   12.7888 C.ar    1  UNL1        0.1072
     15 N          63.2648   84.6371   14.1770 N.ar    1  UNL1       -0.1477
     16 N          64.3209   85.2856   15.0221 N.ar    1  UNL1       -0.1447
     17 C          63.6967   85.6682   16.3313 C.ar    1  UNL1        0.1446
     18 C          62.2549   85.2562   16.2953 C.ar    1  UNL1        0.1446
     19 N          61.9880   84.6190   14.9639 N.ar    1  UNL1       -0.1447
     20 C          61.8863   89.2451   12.2107 C.3     1  UNL1        0.0487
     21 C          62.9544   90.2606   11.9319 C.ar    1  UNL1       -0.0203
     22 C          63.0616   90.8818   10.5708 C.ar    1  UNL1       -0.0042
     23 C          64.1298   91.8974   10.2918 C.ar    1  UNL1       -0.0002
     24 C          65.0906   92.2918   11.3741 C.ar    1  UNL1        0.0046
     25 C          64.9833   91.6706   12.7353 C.ar    1  UNL1        0.0533
     26 C          63.9152   90.6551   13.0141 C.ar    1  UNL1        0.0004
     27 C          65.9441   92.0650   13.8175 C.ar    1  UNL1        0.2298
     28 N          65.5808   92.4593   15.2184 N.ar    1  UNL1       -0.2065
     29 C          66.8491   92.7724   15.9556 C.ar    1  UNL1        0.1427
     30 C          67.9963   92.5716   15.0103 C.ar    1  UNL1        0.2021
     31 O          67.4370   92.1344   13.6888 O.2     1  UNL1       -0.4314
@<TRIPOS>BOND
     1     1     2    2
     2     2     9    1
     3     9    10   ar
     4    10    11   ar
     5    11    12   ar
     6    12    13   ar
     7    13    14   ar
     8    14    15    1
     9    15    16   ar
    10    16    17   ar
    11    17    18   ar
    12    18    19   ar
    13     2     3   am
    14     3     4    1
    15     4     5    1
    16     5     6    1
    17     6     7    1
    18     7     8    1
    19     8    20    1
    20    20    21    1
    21    21    22   ar
    22    22    23   ar
    23    23    24   ar
    24    24    25   ar
    25    25    27    1
    26    27    28   ar
    27    28    29   ar
    28    29    30   ar
    29    30    31   ar
    30    25    26   ar
    31    14     9   ar
    32    19    15   ar
    33     8     3    1
    34    26    21   ar
    35    31    27   ar
@<TRIPOS>MOLECULE
*****
 31 35 0 0 0
SMALL
GASTEIGER

@<TRIPOS>ATOM
      1 O          63.6435   87.4641   13.6867 O.2     1  UNL1       -0.2699
      2 C          63.0501   87.0679   12.3673 C.2     1  UNL1        0.2506
      3 N          62.3992   88.1017   11.4970 N.am    1  UNL1       -0.2723
      4 C          61.8058   87.7056   10.1776 C.3     1  UNL1        0.1257
      5 C          61.1549   88.7395    9.3073 C.3     1  UNL1        0.1637
      6 O          61.0974   90.1695    9.7563 O.3     1  UNL1       -0.3502
      7 C          61.6909   90.5657   11.0758 C.3     1  UNL1        0.1622
      8 C          62.3418   89.5318   11.9461 C.3     1  UNL1        0.1096
      9 C          63.1075   85.6378   11.9182 C.ar    1  UNL1        0.0729
     10 C          63.1379   85.3121   10.4544 C.ar    1  UNL1        0.0061
     11 C          63.1953   83.8821   10.0053 C.ar    1  UNL1        0.0002
     12 C          63.2224   82.7778   11.0200 C.ar    1  UNL1        0.0016
     13 C          63.1921   83.1036   12.4839 C.ar    1  UNL1        0.0211
     14 C          63.1346   84.5336   12.9330 C.ar    1  UNL1        0.1072
     15 N          63.1043   84.8593   14.3969 N.ar    1  UNL1       -0.1477
     16 N          64.2866   85.2294   15.2425 N.ar    1  UNL1       -0.1447
     17 C          63.7994   85.4710   16.6405 C.ar    1  UNL1        0.1446
     18 C          62.3158   85.2502   16.6588 C.ar    1  UNL1        0.1446
     19 N          61.8863   84.8722   15.2722 N.ar    1  UNL1       -0.1447
     20 C          62.9352   89.9280   13.2655 C.3     1  UNL1        0.0487
     21 C          64.2317   90.6811   13.3089 C.ar    1  UNL1       -0.0203
     22 C          65.1684   90.4955   14.4656 C.ar    1  UNL1       -0.0042
     23 C          66.4650   91.2486   14.5090 C.ar    1  UNL1       -0.0002
     24 C          66.8248   92.1872   13.3957 C.ar    1  UNL1        0.0046
     25 C          65.8880   92.3727   12.2389 C.ar    1  UNL1        0.0533
     26 C          64.5915   91.6197   12.1955 C.ar    1  UNL1        0.0004
     27 C          66.2478   93.3113   11.1256 C.ar    1  UNL1        0.2298
     28 N          67.4191   93.1722   10.1989 N.ar    1  UNL1       -0.2065
     29 C          67.3947   94.3288    9.2440 C.ar    1  UNL1        0.1427
     30 C          66.2083   95.1827    9.5805 C.ar    1  UNL1        0.2021
     31 O          65.4994   94.5540   10.7434 O.2     1  UNL1       -0.4314
@<TRIPOS>BOND
     1     1     2    2
     2     2     9    1
     3     9    10   ar
     4    10    11   ar
     5    11    12   ar
     6    12    13   ar
     7    13    14   ar
     8    14    15    1
     9    15    16   ar
    10    16    17   ar
    11    17    18   ar
    12    18    19   ar
    13     2     3   am
    14     3     4    1
    15     4     5    1
    16     5     6    1
    17     6     7    1
    18     7     8    1
    19     8    20    1
    20    20    21    1
    21    21    22   ar
    22    22    23   ar
    23    23    24   ar
    24    24    25   ar
    25    25    27    1
    26    27    28   ar
    27    28    29   ar
    28    29    30   ar
    29    30    31   ar
    30    25    26   ar
    31    14     9   ar
    32    19    15   ar
    33     8     3    1
    34    26    21   ar
    35    31    27   ar
@<TRIPOS>MOLECULE
*****
 31 35 0 0 0
SMALL
GASTEIGER

@<TRIPOS>ATOM
      1 O          62.6785   90.0314   11.5118 O.2     1  UNL1       -0.2699
      2 C          62.6920   88.5317   11.5406 C.2     1  UNL1        0.2506
      3 N          63.3280   87.8094   12.6911 N.am    1  UNL1       -0.2723
      4 C          63.3415   86.3097   12.7199 C.3     1  UNL1        0.1257
      5 C          63.9775   85.5873   13.8704 C.3     1  UNL1        0.1637
      6 O          64.5999   86.3646   14.9922 O.3     1  UNL1       -0.3502
      7 C          64.5864   87.8643   14.9634 C.3     1  UNL1        0.1622
      8 C          63.9505   88.5867   13.8129 C.3     1  UNL1        0.1096
      9 C          62.0695   87.7544   10.4188 C.ar    1  UNL1        0.0729
     10 C          62.8934   86.7735    9.6385 C.ar    1  UNL1        0.0061
     11 C          62.2710   85.9962    8.5167 C.ar    1  UNL1        0.0002
     12 C          60.8247   86.1999    8.1753 C.ar    1  UNL1        0.0016
     13 C          60.0008   87.1808    8.9556 C.ar    1  UNL1        0.0211
     14 C          60.6232   87.9581   10.0774 C.ar    1  UNL1        0.1072
     15 N          59.7993   88.9390   10.8577 N.ar    1  UNL1       -0.1477
     16 N          59.0432   88.6480   12.1201 N.ar    1  UNL1       -0.1447
     17 C          58.3634   89.9124   12.5553 C.ar    1  UNL1        0.1446
     18 C          58.6994   90.9848   11.5618 C.ar    1  UNL1        0.1446
     19 N          59.5868   90.3833   10.5127 N.ar    1  UNL1       -0.1447
     20 C          63.9369   90.0863   13.7842 C.3     1  UNL1        0.0487
     21 C          65.2285   90.8471   13.7293 C.ar    1  UNL1       -0.0203
     22 C          66.1507   90.8454   14.9122 C.ar    1  UNL1       -0.0042
     23 C          67.4424   91.6062   14.8574 C.ar    1  UNL1       -0.0002
     24 C          67.8117   92.3686   13.6195 C.ar    1  UNL1        0.0046
     25 C          66.8894   92.3703   12.4365 C.ar    1  UNL1        0.0533
     26 C          65.5978   91.6095   12.4914 C.ar    1  UNL1        0.0004
     27 C          67.2587   93.1327   11.1987 C.ar    1  UNL1        0.2298
     28 N          68.0358   92.5977   10.0325 N.ar    1  UNL1       -0.2065
     29 C          68.1732   93.6983    9.0227 C.ar    1  UNL1        0.1427
     30 C          67.4810   94.9137    9.5648 C.ar    1  UNL1        0.2021
     31 O          66.9158   94.5642   10.9096 O.2     1  UNL1       -0.4314
@<TRIPOS>BOND
     1     1     2    2
     2     2     9    1
     3     9    10   ar
     4    10    11   ar
     5    11    12   ar
     6    12    13   ar
     7    13    14   ar
     8    14    15    1
     9    15    16   ar
    10    16    17   ar
    11    17    18   ar
    12    18    19   ar
    13     2     3   am
    14     3     4    1
    15     4     5    1
    16     5     6    1
    17     6     7    1
    18     7     8    1
    19     8    20    1
    20    20    21    1
    21    21    22   ar
    22    22    23   ar
    23    23    24   ar
    24    24    25   ar
    25    25    27    1
    26    27    28   ar
    27    28    29   ar
    28    29    30   ar
    29    30    31   ar
    30    25    26   ar
    31    14     9   ar
    32    19    15   ar
    33     8     3    1
    34    26    21   ar
    35    31    27   ar
@<TRIPOS>MOLECULE
*****
 31 35 0 0 0
SMALL
GASTEIGER

@<TRIPOS>ATOM
      1 O          63.7035   88.4361   12.2945 O.2     1  UNL1       -0.2699
      2 C          63.5630   87.4222   13.3909 C.2     1  UNL1        0.2506
      3 N          63.4284   87.8718   14.8156 N.am    1  UNL1       -0.2723
      4 C          63.2879   86.8578   15.9120 C.3     1  UNL1        0.1257
      5 C          63.1533   87.3076   17.3367 C.3     1  UNL1        0.1637
      6 O          63.1591   88.7712   17.6649 O.3     1  UNL1       -0.3502
      7 C          63.2996   89.7851   16.5685 C.3     1  UNL1        0.1622
      8 C          63.4342   89.3355   15.1438 C.3     1  UNL1        0.1096
      9 C          63.5572   85.9585   13.0627 C.ar    1  UNL1        0.0729
     10 C          64.3899   85.0058   13.8684 C.ar    1  UNL1        0.0061
     11 C          64.3841   83.5422   13.5402 C.ar    1  UNL1        0.0002
     12 C          63.5456   83.0313   12.4062 C.ar    1  UNL1        0.0016
     13 C          62.7130   83.9839   11.6005 C.ar    1  UNL1        0.0211
     14 C          62.7188   85.4475   11.9287 C.ar    1  UNL1        0.1072
     15 N          61.8861   86.4001   11.1230 N.ar    1  UNL1       -0.1477
     16 N          60.6766   87.1423   11.6090 N.ar    1  UNL1       -0.1447
     17 C          60.1597   87.9787   10.4762 C.ar    1  UNL1        0.1446
     18 C          61.0498   87.7534    9.2900 C.ar    1  UNL1        0.1446
     19 N          62.1168   86.7778    9.6898 N.ar    1  UNL1       -0.1447
     20 C          63.5746   90.3494   14.0474 C.3     1  UNL1        0.0487
     21 C          64.8696   91.0847   13.8672 C.ar    1  UNL1       -0.0203
     22 C          65.9762   90.9102   14.8646 C.ar    1  UNL1       -0.0042
     23 C          67.2712   91.6454   14.6844 C.ar    1  UNL1       -0.0002
     24 C          67.4595   92.5552   13.5067 C.ar    1  UNL1        0.0046
     25 C          66.3528   92.7297   12.5093 C.ar    1  UNL1        0.0533
     26 C          65.0579   91.9944   12.6895 C.ar    1  UNL1        0.0004
     27 C          66.5411   93.6394   11.3316 C.ar    1  UNL1        0.2298
     28 N          67.5277   93.4475   10.2181 N.ar    1  UNL1       -0.2065
     29 C          67.3722   94.5903    9.2590 C.ar    1  UNL1        0.1427
     30 C          66.2896   95.4885    9.7797 C.ar    1  UNL1        0.2021
     31 O          65.7759   94.9009   11.0607 O.2     1  UNL1       -0.4314
@<TRIPOS>BOND
     1     1     2    2
     2     2     9    1
     3     9    10   ar
     4    10    11   ar
     5    11    12   ar
     6    12    13   ar
     7    13    14   ar
     8    14    15    1
     9    15    16   ar
    10    16    17   ar
    11    17    18   ar
    12    18    19   ar
    13     2     3   am
    14     3     4    1
    15     4     5    1
    16     5     6    1
    17     6     7    1
    18     7     8    1
    19     8    20    1
    20    20    21    1
    21    21    22   ar
    22    22    23   ar
    23    23    24   ar
    24    24    25   ar
    25    25    27    1
    26    27    28   ar
    27    28    29   ar
    28    29    30   ar
    29    30    31   ar
    30    25    26   ar
    31    14     9   ar
    32    19    15   ar
    33     8     3    1
    34    26    21   ar
    35    31    27   ar
@<TRIPOS>MOLECULE
*****
 31 35 0 0 0
SMALL
GASTEIGER

@<TRIPOS>ATOM
      1 O          63.0274   89.5555   10.7984 O.2     1  UNL1       -0.2699
      2 C          62.6270   88.1202   10.9708 C.2     1  UNL1        0.2506
      3 N          63.0492   87.3659   12.1966 N.am    1  UNL1       -0.2723
      4 C          62.6488   85.9306   12.3690 C.3     1  UNL1        0.1257
      5 C          63.0710   85.1763   13.5949 C.3     1  UNL1        0.1637
      6 O          63.8935   85.8572   14.6484 O.3     1  UNL1       -0.3502
      7 C          64.2939   87.2925   14.4760 C.3     1  UNL1        0.1622
      8 C          63.8717   88.0468   13.2501 C.3     1  UNL1        0.1096
      9 C          61.8045   87.4393    9.9173 C.ar    1  UNL1        0.0729
     10 C          62.4318   86.4092    9.0254 C.ar    1  UNL1        0.0061
     11 C          61.6093   85.7283    7.9720 C.ar    1  UNL1        0.0002
     12 C          60.1595   86.0775    7.8103 C.ar    1  UNL1        0.0016
     13 C          59.5322   87.1076    8.7021 C.ar    1  UNL1        0.0211
     14 C          60.3547   87.7885    9.7556 C.ar    1  UNL1        0.1072
     15 N          59.7274   88.8187   10.6474 N.ar    1  UNL1       -0.1477
     16 N          59.5959   90.2824   10.3471 N.ar    1  UNL1       -0.1447
     17 C          58.9087   90.9343   11.5102 C.ar    1  UNL1        0.1446
     18 C          58.6155   89.8735   12.5294 C.ar    1  UNL1        0.1446
     19 N          59.1215   88.5660   11.9961 N.ar    1  UNL1       -0.1447
     20 C          64.2721   89.4821   13.0777 C.3     1  UNL1        0.0487
     21 C          64.5066   90.3451   14.2819 C.ar    1  UNL1       -0.0203
     22 C          63.4441   90.4705   15.3332 C.ar    1  UNL1       -0.0042
     23 C          63.6786   91.3336   16.5374 C.ar    1  UNL1       -0.0002
     24 C          64.9757   92.0712   16.6904 C.ar    1  UNL1        0.0046
     25 C          66.0383   91.9458   15.6390 C.ar    1  UNL1        0.0533
     26 C          65.8037   91.0828   14.4348 C.ar    1  UNL1        0.0004
     27 C          67.3354   92.6835   15.7919 C.ar    1  UNL1        0.2298
     28 N          68.6519   92.0804   16.1831 N.ar    1  UNL1       -0.2065
     29 C          69.6739   93.1780   16.2134 C.ar    1  UNL1        0.1427
     30 C          68.9890   94.4594   15.8410 C.ar    1  UNL1        0.2021
     31 O          67.5437   94.1539   15.5805 O.2     1  UNL1       -0.4314
@<TRIPOS>BOND
     1     1     2    2
     2     2     9    1
     3     9    10   ar
     4    10    11   ar
     5    11    12   ar
     6    12    13   ar
     7    13    14   ar
     8    14    15    1
     9    15    16   ar
    10    16    17   ar
    11    17    18   ar
    12    18    19   ar
    13     2     3   am
    14     3     4    1
    15     4     5    1
    16     5     6    1
    17     6     7    1
    18     7     8    1
    19     8    20    1
    20    20    21    1
    21    21    22   ar
    22    22    23   ar
    23    23    24   ar
    24    24    25   ar
    25    25    27    1
    26    27    28   ar
    27    28    29   ar
    28    29    30   ar
    29    30    31   ar
    30    25    26   ar
    31    14     9   ar
    32    19    15   ar
    33     8     3    1
    34    26    21   ar
    35    31    27   ar
@<TRIPOS>MOLECULE
*****
 31 35 0 0 0
SMALL
GASTEIGER

@<TRIPOS>ATOM
      1 O          65.0917   85.5657   13.3186 O.2     1  UNL1       -0.2699
      2 C          64.0247   84.8226   14.0665 C.2     1  UNL1        0.2506
      3 N          63.3729   85.4492   15.2634 N.am    1  UNL1       -0.2723
      4 C          62.3059   84.7062   16.0113 C.3     1  UNL1        0.1257
      5 C          61.6541   85.3329   17.2082 C.3     1  UNL1        0.1637
      6 O          62.0693   86.7025   17.6571 O.3     1  UNL1       -0.3502
      7 C          63.1363   87.4456   16.9092 C.3     1  UNL1        0.1622
      8 C          63.7881   86.8190   15.7124 C.3     1  UNL1        0.1096
      9 C          63.6094   83.4529   13.6175 C.ar    1  UNL1        0.0729
     10 C          63.9581   82.2536   14.4482 C.ar    1  UNL1        0.0061
     11 C          63.5429   80.8839   13.9993 C.ar    1  UNL1        0.0002
     12 C          62.7791   80.7136   12.7197 C.ar    1  UNL1        0.0016
     13 C          62.4304   81.9129   11.8890 C.ar    1  UNL1        0.0211
     14 C          62.8456   83.2826   12.3379 C.ar    1  UNL1        0.1072
     15 N          62.4969   84.4819   11.5072 N.ar    1  UNL1       -0.1477
     16 N          62.9243   84.7276   10.0905 N.ar    1  UNL1       -0.1447
     17 C          62.3512   86.0437    9.6551 C.ar    1  UNL1        0.1446
     18 C          61.5696   86.6113   10.8026 C.ar    1  UNL1        0.1446
     19 N          61.6597   85.6460   11.9473 N.ar    1  UNL1       -0.1447
     20 C          64.8551   87.5620   14.9644 C.3     1  UNL1        0.0487
     21 C          64.5122   88.8171   14.2180 C.ar    1  UNL1       -0.0203
     22 C          65.2325   90.0954   14.5296 C.ar    1  UNL1       -0.0042
     23 C          64.8896   91.3506   13.7831 C.ar    1  UNL1       -0.0002
     24 C          63.8265   91.3273   12.7252 C.ar    1  UNL1        0.0046
     25 C          63.1063   90.0489   12.4136 C.ar    1  UNL1        0.0533
     26 C          63.4492   88.7938   13.1601 C.ar    1  UNL1        0.0004
     27 C          62.0432   90.0257   11.3557 C.ar    1  UNL1        0.2298
     28 N          60.5666   90.1539   11.5865 N.ar    1  UNL1       -0.2065
     29 C          59.8808   90.0776   10.2546 C.ar    1  UNL1        0.1427
     30 C          60.9336   89.9022    9.2006 C.ar    1  UNL1        0.2021
     31 O          62.2701   89.8701    9.8810 O.2     1  UNL1       -0.4314
@<TRIPOS>BOND
     1     1     2    2
     2     2     9    1
     3     9    10   ar
     4    10    11   ar
     5    11    12   ar
     6    12    13   ar
     7    13    14   ar
     8    14    15    1
     9    15    16   ar
    10    16    17   ar
    11    17    18   ar
    12    18    19   ar
    13     2     3   am
    14     3     4    1
    15     4     5    1
    16     5     6    1
    17     6     7    1
    18     7     8    1
    19     8    20    1
    20    20    21    1
    21    21    22   ar
    22    22    23   ar
    23    23    24   ar
    24    24    25   ar
    25    25    27    1
    26    27    28   ar
    27    28    29   ar
    28    29    30   ar
    29    30    31   ar
    30    25    26   ar
    31    14     9   ar
    32    19    15   ar
    33     8     3    1
    34    26    21   ar
    35    31    27   ar
@<TRIPOS>MOLECULE
*****
 31 35 0 0 0
SMALL
GASTEIGER

@<TRIPOS>ATOM
      1 O          62.9414   87.8656   12.5445 O.2     1  UNL1       -0.2699
      2 C          62.7299   89.0241   11.6155 C.2     1  UNL1        0.2506
      3 N          61.6888   88.9418   10.5388 N.am    1  UNL1       -0.2723
      4 C          61.4774   90.1003    9.6098 C.3     1  UNL1        0.1257
      5 C          60.4362   90.0179    8.5331 C.3     1  UNL1        0.1637
      6 O          59.6066   88.7770    8.3854 O.3     1  UNL1       -0.3502
      7 C          59.8180   87.6185    9.3144 C.3     1  UNL1        0.1622
      8 C          60.8591   87.7008   10.3911 C.3     1  UNL1        0.1096
      9 C          63.5596   90.2650   11.7632 C.ar    1  UNL1        0.0729
     10 C          63.8568   91.1157   10.5640 C.ar    1  UNL1        0.0061
     11 C          64.6865   92.3565   10.7116 C.ar    1  UNL1        0.0002
     12 C          65.2189   92.7468   12.0585 C.ar    1  UNL1        0.0016
     13 C          64.9218   91.8962   13.2577 C.ar    1  UNL1        0.0211
     14 C          64.0921   90.6553   13.1101 C.ar    1  UNL1        0.1072
     15 N          63.7949   89.8047   14.3093 N.ar    1  UNL1       -0.1477
     16 N          62.7356   90.0698   15.3376 N.ar    1  UNL1       -0.1447
     17 C          62.7908   88.9686   16.3546 C.ar    1  UNL1        0.1446
     18 C          63.8843   88.0228   15.9548 C.ar    1  UNL1        0.1446
     19 N          64.5049   88.5396   14.6907 N.ar    1  UNL1       -0.1447
     20 C          61.0706   86.5423   11.3201 C.3     1  UNL1        0.0487
     21 C          61.9590   85.4051   10.9107 C.ar    1  UNL1       -0.0203
     22 C          62.7065   85.4675    9.6118 C.ar    1  UNL1       -0.0042
     23 C          63.5950   84.3303    9.2024 C.ar    1  UNL1       -0.0002
     24 C          63.7359   83.1308   10.0920 C.ar    1  UNL1        0.0046
     25 C          62.9883   83.0685   11.3910 C.ar    1  UNL1        0.0533
     26 C          62.0999   84.2056   11.8003 C.ar    1  UNL1        0.0004
     27 C          63.1292   81.8690   12.2806 C.ar    1  UNL1        0.2298
     28 N          63.9458   81.7939   13.5366 N.ar    1  UNL1       -0.2065
     29 C          63.7995   80.4125   14.1026 C.ar    1  UNL1        0.1427
     30 C          62.8926   79.6339   13.1964 C.ar    1  UNL1        0.2021
     31 O          62.4783   80.5340   12.0703 O.2     1  UNL1       -0.4314
@<TRIPOS>BOND
     1     1     2    2
     2     2     9    1
     3     9    10   ar
     4    10    11   ar
     5    11    12   ar
     6    12    13   ar
     7    13    14   ar
     8    14    15    1
     9    15    16   ar
    10    16    17   ar
    11    17    18   ar
    12    18    19   ar
    13     2     3   am
    14     3     4    1
    15     4     5    1
    16     5     6    1
    17     6     7    1
    18     7     8    1
    19     8    20    1
    20    20    21    1
    21    21    22   ar
    22    22    23   ar
    23    23    24   ar
    24    24    25   ar
    25    25    27    1
    26    27    28   ar
    27    28    29   ar
    28    29    30   ar
    29    30    31   ar
    30    25    26   ar
    31    14     9   ar
    32    19    15   ar
    33     8     3    1
    34    26    21   ar
    35    31    27   ar
