@<TRIPOS>MOLECULE
*****
 40 45 0 0 0
SMALL
GASTEIGER

@<TRIPOS>ATOM
      1 N          59.6841   94.2502   -5.3656 N.ar    1  UNL1       -0.3108
      2 C          59.4029   94.3163   -6.8375 C.ar    1  UNL1        0.1785
      3 N          60.7172   94.3634   -7.5588 N.ar    1  UNL1       -0.2223
      4 C          61.8107   94.3263   -6.5327 C.ar    1  UNL1        0.1179
      5 C          63.3054   94.3472   -6.6576 C.ar    1  UNL1        0.1194
      6 N          64.1616   94.2982   -5.4269 N.ar    1  UNL1       -0.2421
      7 C          63.5231   94.2282   -4.0714 C.ar    1  UNL1        0.0850
      8 C          64.3792   94.1792   -2.8407 C.ar    1  UNL1        0.0488
      9 C          63.7407   94.1092   -1.4852 C.ar    1  UNL1        0.1416
     10 F          64.5968   94.0601   -0.2545 F       1  UNL1       -0.2041
     11 C          62.2461   94.0883   -1.3603 C.ar    1  UNL1        0.0284
     12 C          61.3899   94.1373   -2.5910 C.ar    1  UNL1        0.0052
     13 C          62.0284   94.2073   -3.9465 C.ar    1  UNL1        0.0352
     14 C          61.1723   94.2563   -5.1772 C.ar    1  UNL1        0.0818
     15 C          56.6042   94.0655   -2.0898 C.3     1  UNL1        0.0533
     16 N          55.8558   93.0552   -1.2719 N.3     1  UNL1       -0.3223
     17 C          57.1688   92.7985   -2.6608 C.3     1  UNL1        0.0172
     18 C          58.1954   92.8601   -3.7527 C.3     1  UNL1        0.0240
     19 C          58.6575   94.1886   -4.2737 C.3     1  UNL1        0.0871
     20 C          58.0929   95.4557   -3.7028 C.3     1  UNL1        0.0240
     21 C          57.0663   95.3940   -2.6108 C.3     1  UNL1        0.0172
     22 H          56.1383   92.1155   -1.5507 H       1  UNL1        0.1188
     23 H          54.8538   93.1685   -1.4253 H       1  UNL1        0.1188
     24 C          55.7797   94.9816   -1.2348 C.3     1  UNL1        0.1195
     25 N          52.9617   95.6396   -2.0257 N.1     1  UNL1       -0.1958
     26 C          54.3707   95.3106   -1.6303 C.1     1  UNL1        0.0745
     27 C          61.6076   94.0183   -0.0048 C.ar    1  UNL1        0.0129
     28 C          61.5141   92.7046    0.7133 C.ar    1  UNL1        0.0040
     29 C          60.8756   92.6346    2.0688 C.ar    1  UNL1        0.0377
     30 C          60.3306   93.8784    2.7062 C.ar    1  UNL1        0.1495
     31 C          60.4241   95.1919    1.9882 C.ar    1  UNL1        0.0490
     32 C          61.0626   95.2619    0.6326 C.ar    1  UNL1        0.0608
     33 CL         61.1562   96.5755   -0.0854 Cl      1  UNL1       -0.0821
     34 O          59.6921   93.8084    4.0618 O.3     1  UNL1       -0.4223
     35 C          59.2551   92.4854    4.6175 C.ar    1  UNL1        0.3246
     36 N          60.2757   91.5137    5.1314 N.ar    1  UNL1       -0.1924
     37 C          59.8386   90.1907    5.6871 C.ar    1  UNL1        0.1053
     38 C          58.3808   89.8396    5.7290 C.ar    1  UNL1        0.0416
     39 C          57.3602   90.8114    5.2151 C.ar    1  UNL1        0.1053
     40 N          57.7973   92.1343    4.6594 N.ar    1  UNL1       -0.1924
@<TRIPOS>BOND
     1    25    26    3
     2    26    24    1
     3    24    15    1
     4    15    16    1
     5    15    17    1
     6    17    18    1
     7    18    19    1
     8    19     1    1
     9     1     2   ar
    10     2     3   ar
    11     3     4   ar
    12     4     5   ar
    13     5     6   ar
    14     6     7   ar
    15     7     8   ar
    16     8     9   ar
    17     9    10    1
    18     9    11   ar
    19    11    27    1
    20    27    28   ar
    21    28    29   ar
    22    29    30   ar
    23    30    34    1
    24    34    35    1
    25    35    36   ar
    26    36    37   ar
    27    37    38   ar
    28    38    39   ar
    29    39    40   ar
    30    30    31   ar
    31    31    32   ar
    32    32    33    1
    33    11    12   ar
    34    12    13   ar
    35    13    14   ar
    36    19    20    1
    37    20    21    1
    38    21    15    1
    39    14     1   ar
    40    14     4   ar
    41    13     7   ar
    42    32    27   ar
    43    40    35   ar
    44    16    22    1
    45    16    23    1
@<TRIPOS>MOLECULE
*****
 40 45 0 0 0
SMALL
GASTEIGER

@<TRIPOS>ATOM
      1 N          60.1323   94.4359   -5.4522 N.ar    1  UNL1       -0.3108
      2 C          59.9589   94.4675   -6.9418 C.ar    1  UNL1        0.1785
      3 N          61.3080   94.6831   -7.5610 N.ar    1  UNL1       -0.2223
      4 C          62.3152   94.7848   -6.4541 C.ar    1  UNL1        0.1179
      5 C          63.8001   94.9967   -6.4645 C.ar    1  UNL1        0.1194
      6 N          64.5584   95.0559   -5.1716 N.ar    1  UNL1       -0.2421
      7 C          63.8318   94.9032   -3.8683 C.ar    1  UNL1        0.0850
      8 C          64.5901   94.9624   -2.5755 C.ar    1  UNL1        0.0488
      9 C          63.8634   94.8097   -1.2721 C.ar    1  UNL1        0.1416
     10 F          64.6217   94.8689    0.0207 F       1  UNL1       -0.2041
     11 C          62.3785   94.5977   -1.2616 C.ar    1  UNL1        0.0284
     12 C          61.6202   94.5385   -2.5545 C.ar    1  UNL1        0.0052
     13 C          62.3468   94.6912   -3.8579 C.ar    1  UNL1        0.0352
     14 C          61.5886   94.6320   -5.1507 C.ar    1  UNL1        0.0818
     15 C          56.8585   93.8551   -2.4198 C.3     1  UNL1        0.0533
     16 N          55.8653   94.6579   -1.6331 N.3     1  UNL1       -0.3223
     17 C          57.1922   95.2334   -2.9085 C.3     1  UNL1        0.0172
     18 C          58.2835   95.4270   -3.9193 C.3     1  UNL1        0.0240
     19 C          59.0411   94.2423   -4.4414 C.3     1  UNL1        0.0871
     20 C          58.7073   92.8639   -3.9527 C.3     1  UNL1        0.0240
     21 C          57.6160   92.6704   -2.9419 C.3     1  UNL1        0.0172
     22 H          55.9697   95.6464   -1.8618 H       1  UNL1        0.1188
     23 H          56.0304   94.5203   -0.6360 H       1  UNL1        0.1188
     24 C          56.1798   92.7556   -1.6579 C.3     1  UNL1        0.1195
     25 N          55.5278   90.1654   -3.0236 N.1     1  UNL1       -0.1958
     26 C          55.8538   91.4604   -2.3408 C.1     1  UNL1        0.0745
     27 C          61.6519   94.4450    0.0417 C.ar    1  UNL1        0.0129
     28 C          61.4286   95.6400    0.9204 C.ar    1  UNL1        0.0040
     29 C          60.7019   95.4873    2.2237 C.ar    1  UNL1        0.0377
     30 C          60.1987   94.1395    2.6484 C.ar    1  UNL1        0.1495
     31 C          60.4220   92.9445    1.7697 C.ar    1  UNL1        0.0490
     32 C          61.1486   93.0973    0.4663 C.ar    1  UNL1        0.0608
     33 CL         61.3720   91.9023   -0.4124 Cl      1  UNL1       -0.0821
     34 O          59.4720   93.9867    3.9517 O.3     1  UNL1       -0.4223
     35 C          59.2810   92.6239    4.5486 C.ar    1  UNL1        0.3246
     36 N          57.9036   92.1458    4.9010 N.ar    1  UNL1       -0.1924
     37 C          57.7126   90.7830    5.4980 C.ar    1  UNL1        0.1053
     38 C          58.8990   89.8983    5.7425 C.ar    1  UNL1        0.0416
     39 C          60.2764   90.3764    5.3900 C.ar    1  UNL1        0.1053
     40 N          60.4674   91.7392    4.7931 N.ar    1  UNL1       -0.1924
@<TRIPOS>BOND
     1    25    26    3
     2    26    24    1
     3    24    15    1
     4    15    16    1
     5    15    17    1
     6    17    18    1
     7    18    19    1
     8    19     1    1
     9     1     2   ar
    10     2     3   ar
    11     3     4   ar
    12     4     5   ar
    13     5     6   ar
    14     6     7   ar
    15     7     8   ar
    16     8     9   ar
    17     9    10    1
    18     9    11   ar
    19    11    27    1
    20    27    28   ar
    21    28    29   ar
    22    29    30   ar
    23    30    34    1
    24    34    35    1
    25    35    36   ar
    26    36    37   ar
    27    37    38   ar
    28    38    39   ar
    29    39    40   ar
    30    30    31   ar
    31    31    32   ar
    32    32    33    1
    33    11    12   ar
    34    12    13   ar
    35    13    14   ar
    36    19    20    1
    37    20    21    1
    38    21    15    1
    39    14     1   ar
    40    14     4   ar
    41    13     7   ar
    42    32    27   ar
    43    40    35   ar
    44    16    22    1
    45    16    23    1
@<TRIPOS>MOLECULE
*****
 40 45 0 0 0
SMALL
GASTEIGER

@<TRIPOS>ATOM
      1 N          62.6183   81.9924   14.1758 N.ar    1  UNL1       -0.3108
      2 C          62.5459   80.6014   14.7325 C.ar    1  UNL1        0.1785
      3 N          62.6529   79.6380   13.5878 N.ar    1  UNL1       -0.2223
      4 C          62.7914   80.4335   12.3237 C.ar    1  UNL1        0.1179
      5 C          62.9342   80.0209   10.8887 C.ar    1  UNL1        0.1194
      6 N          63.0557   81.0634    9.8170 N.ar    1  UNL1       -0.2421
      7 C          63.0344   82.5186   10.1805 C.ar    1  UNL1        0.0850
      8 C          63.1558   83.5611    9.1089 C.ar    1  UNL1        0.0488
      9 C          63.1345   85.0163    9.4723 C.ar    1  UNL1        0.1416
     10 F          63.2560   86.0588    8.4007 F       1  UNL1       -0.2041
     11 C          62.9917   85.4289   10.9073 C.ar    1  UNL1        0.0284
     12 C          62.8702   84.3863   11.9790 C.ar    1  UNL1        0.0052
     13 C          62.8915   82.9312   11.6156 C.ar    1  UNL1        0.0352
     14 C          62.7701   81.8887   12.6871 C.ar    1  UNL1        0.0818
     15 C          62.4159   85.8071   16.5544 C.3     1  UNL1        0.0533
     16 N          61.4117   86.8202   17.0181 N.3     1  UNL1       -0.3223
     17 C          61.1662   85.2239   15.9644 C.3     1  UNL1        0.0172
     18 C          61.2337   83.9524   15.1716 C.3     1  UNL1        0.0240
     19 C          62.5509   83.2640   14.9687 C.3     1  UNL1        0.0871
     20 C          63.8006   83.8472   15.5586 C.3     1  UNL1        0.0240
     21 C          63.7331   85.1187   16.3515 C.3     1  UNL1        0.0172
     22 H          60.4840   86.5557   16.6867 H       1  UNL1        0.1188
     23 H          61.6571   87.7374   16.6454 H       1  UNL1        0.1188
     24 C          63.3169   86.7422   17.3054 C.3     1  UNL1        0.1195
     25 N          63.1357   89.6997   16.8362 N.1     1  UNL1       -0.1958
     26 C          63.2263   88.2210   17.0708 C.1     1  UNL1        0.0745
     27 C          62.9704   86.8840   11.2708 C.ar    1  UNL1        0.0129
     28 C          62.3895   87.8866   10.3180 C.ar    1  UNL1        0.0040
     29 C          62.3682   89.3417   10.6815 C.ar    1  UNL1        0.0377
     30 C          62.9277   89.7943   11.9976 C.ar    1  UNL1        0.1495
     31 C          63.5085   88.7918   12.9503 C.ar    1  UNL1        0.0490
     32 C          63.5298   87.3367   12.5868 C.ar    1  UNL1        0.0608
     33 CL         64.1106   86.3341   13.5395 Cl      1  UNL1       -0.0821
     34 O          62.9063   91.2495   12.3611 O.3     1  UNL1       -0.4223
     35 C          64.1431   91.9065   12.8987 C.ar    1  UNL1        0.3246
     36 N          64.4971   91.7654   14.3494 N.ar    1  UNL1       -0.1924
     37 C          65.7338   92.4224   14.8870 C.ar    1  UNL1        0.1053
     38 C          66.6165   93.2204   13.9738 C.ar    1  UNL1        0.0416
     39 C          66.2625   93.3615   12.5229 C.ar    1  UNL1        0.1053
     40 N          65.0258   92.7045   11.9854 N.ar    1  UNL1       -0.1924
@<TRIPOS>BOND
     1    25    26    3
     2    26    24    1
     3    24    15    1
     4    15    16    1
     5    15    17    1
     6    17    18    1
     7    18    19    1
     8    19     1    1
     9     1     2   ar
    10     2     3   ar
    11     3     4   ar
    12     4     5   ar
    13     5     6   ar
    14     6     7   ar
    15     7     8   ar
    16     8     9   ar
    17     9    10    1
    18     9    11   ar
    19    11    27    1
    20    27    28   ar
    21    28    29   ar
    22    29    30   ar
    23    30    34    1
    24    34    35    1
    25    35    36   ar
    26    36    37   ar
    27    37    38   ar
    28    38    39   ar
    29    39    40   ar
    30    30    31   ar
    31    31    32   ar
    32    32    33    1
    33    11    12   ar
    34    12    13   ar
    35    13    14   ar
    36    19    20    1
    37    20    21    1
    38    21    15    1
    39    14     1   ar
    40    14     4   ar
    41    13     7   ar
    42    32    27   ar
    43    40    35   ar
    44    16    22    1
    45    16    23    1
@<TRIPOS>MOLECULE
*****
 40 45 0 0 0
SMALL
GASTEIGER

@<TRIPOS>ATOM
      1 N          62.6430   83.6236   10.9053 N.ar    1  UNL1       -0.3108
      2 C          62.3705   82.5420    9.9023 C.ar    1  UNL1        0.1785
      3 N          62.6074   81.2201   10.5705 N.ar    1  UNL1       -0.2223
      4 C          63.0262   81.4847   11.9863 C.ar    1  UNL1        0.1179
      5 C          63.3903   80.5649   13.1138 C.ar    1  UNL1        0.1194
      6 N          63.7765   81.1306   14.4484 N.ar    1  UNL1       -0.2421
      7 C          63.7985   82.6161   14.6553 C.ar    1  UNL1        0.0850
      8 C          64.1847   83.1818   15.9897 C.ar    1  UNL1        0.0488
      9 C          64.2067   84.6673   16.1967 C.ar    1  UNL1        0.1416
     10 F          64.5928   85.2331   17.5311 F       1  UNL1       -0.2041
     11 C          63.8425   85.5871   15.0691 C.ar    1  UNL1        0.0284
     12 C          63.4563   85.0214   13.7346 C.ar    1  UNL1        0.0052
     13 C          63.4343   83.5359   13.5277 C.ar    1  UNL1        0.0352
     14 C          63.0482   82.9702   12.1932 C.ar    1  UNL1        0.0818
     15 C          62.3042   88.0515   10.1778 C.3     1  UNL1        0.0533
     16 N          62.2334   89.0271    9.0407 N.3     1  UNL1       -0.3223
     17 C          62.3818   87.1046    9.0171 C.3     1  UNL1        0.0172
     18 C          62.4947   85.6286    9.2597 C.3     1  UNL1        0.0240
     19 C          62.5300   85.0996   10.6628 C.3     1  UNL1        0.0871
     20 C          62.4525   86.0465   11.8235 C.3     1  UNL1        0.0240
     21 C          62.3395   87.5225   11.5810 C.3     1  UNL1        0.0172
     22 H          62.2758   88.5215    8.1558 H       1  UNL1        0.1188
     23 H          63.0184   89.6756    9.0997 H       1  UNL1        0.1188
     24 C          62.2020   89.3373   10.9436 C.3     1  UNL1        0.1195
     25 N          59.5833   90.7939   11.0866 N.1     1  UNL1       -0.1958
     26 C          60.8926   90.0656   11.0151 C.1     1  UNL1        0.0745
     27 C          63.8645   87.0726   15.2760 C.ar    1  UNL1        0.0129
     28 C          64.6072   87.9528   14.3149 C.ar    1  UNL1        0.0040
     29 C          64.6292   89.4383   14.5218 C.ar    1  UNL1        0.0377
     30 C          63.9085   90.0436   15.6899 C.ar    1  UNL1        0.1495
     31 C          63.1659   89.1634   16.6510 C.ar    1  UNL1        0.0490
     32 C          63.1439   87.6779   16.4440 C.ar    1  UNL1        0.0608
     33 CL         62.4013   86.7977   17.4051 Cl      1  UNL1       -0.0821
     34 O          63.9305   91.5291   15.8968 O.3     1  UNL1       -0.4223
     35 C          65.1537   92.3186   15.5354 C.ar    1  UNL1        0.3246
     36 N          66.2094   92.5808   16.5683 N.ar    1  UNL1       -0.1924
     37 C          67.4326   93.3703   16.2069 C.ar    1  UNL1        0.1053
     38 C          67.6000   93.8977   14.8127 C.ar    1  UNL1        0.0416
     39 C          66.5443   93.6355   13.7798 C.ar    1  UNL1        0.1053
     40 N          65.3212   92.8460   14.1412 N.ar    1  UNL1       -0.1924
@<TRIPOS>BOND
     1    25    26    3
     2    26    24    1
     3    24    15    1
     4    15    16    1
     5    15    17    1
     6    17    18    1
     7    18    19    1
     8    19     1    1
     9     1     2   ar
    10     2     3   ar
    11     3     4   ar
    12     4     5   ar
    13     5     6   ar
    14     6     7   ar
    15     7     8   ar
    16     8     9   ar
    17     9    10    1
    18     9    11   ar
    19    11    27    1
    20    27    28   ar
    21    28    29   ar
    22    29    30   ar
    23    30    34    1
    24    34    35    1
    25    35    36   ar
    26    36    37   ar
    27    37    38   ar
    28    38    39   ar
    29    39    40   ar
    30    30    31   ar
    31    31    32   ar
    32    32    33    1
    33    11    12   ar
    34    12    13   ar
    35    13    14   ar
    36    19    20    1
    37    20    21    1
    38    21    15    1
    39    14     1   ar
    40    14     4   ar
    41    13     7   ar
    42    32    27   ar
    43    40    35   ar
    44    16    22    1
    45    16    23    1
@<TRIPOS>MOLECULE
*****
 40 45 0 0 0
SMALL
GASTEIGER

@<TRIPOS>ATOM
      1 N          62.5798   83.7290   12.9455 N.ar    1  UNL1       -0.3108
      2 C          62.3153   82.2656   13.1410 C.ar    1  UNL1        0.1785
      3 N          62.4318   81.9652   14.6060 N.ar    1  UNL1       -0.2223
      4 C          62.7684   83.2430   15.3158 C.ar    1  UNL1        0.1179
      5 C          63.0034   83.5547   16.7641 C.ar    1  UNL1        0.1194
      6 N          63.3299   84.9567   17.1862 N.ar    1  UNL1       -0.2421
      7 C          63.4214   86.0468   16.1599 C.ar    1  UNL1        0.0850
      8 C          63.7478   87.4487   16.5819 C.ar    1  UNL1        0.0488
      9 C          63.8393   88.5388   15.5557 C.ar    1  UNL1        0.1416
     10 F          64.1658   89.9407   15.9777 F       1  UNL1       -0.2041
     11 C          63.6043   88.2271   14.1074 C.ar    1  UNL1        0.0284
     12 C          63.2778   86.8251   13.6853 C.ar    1  UNL1        0.0052
     13 C          63.1863   85.7350   14.7116 C.ar    1  UNL1        0.0352
     14 C          62.8599   84.3331   14.2896 C.ar    1  UNL1        0.0818
     15 C          62.5403   85.9222    9.0162 C.3     1  UNL1        0.0533
     16 N          63.2099   85.8881    7.6745 N.3     1  UNL1       -0.3223
     17 C          63.4627   84.7561    9.2150 C.3     1  UNL1        0.0172
     18 C          63.4758   84.0251   10.5248 C.3     1  UNL1        0.0240
     19 C          62.5666   84.4601   11.6357 C.3     1  UNL1        0.0871
     20 C          61.6443   85.6262   11.4370 C.3     1  UNL1        0.0240
     21 C          61.6312   86.3572   10.1272 C.3     1  UNL1        0.0172
     22 H          63.8864   85.1251    7.6514 H       1  UNL1        0.1188
     23 H          63.6899   86.7732    7.5114 H       1  UNL1        0.1188
     24 C          61.8505   87.0765    8.3514 C.3     1  UNL1        0.1195
     25 N          58.8850   86.9967    7.9056 N.1     1  UNL1       -0.1958
     26 C          60.3677   87.0366    8.1285 C.1     1  UNL1        0.0745
     27 C          63.6958   89.3172   13.0811 C.ar    1  UNL1        0.0129
     28 C          62.8053   89.2878   11.8743 C.ar    1  UNL1        0.0040
     29 C          62.8968   90.3779   10.8480 C.ar    1  UNL1        0.0377
     30 C          63.8787   91.4975   11.0286 C.ar    1  UNL1        0.1495
     31 C          64.7690   91.5269   12.2354 C.ar    1  UNL1        0.0490
     32 C          64.6775   90.4368   13.2616 C.ar    1  UNL1        0.0608
     33 CL         65.5679   90.4662   14.4684 Cl      1  UNL1       -0.0821
     34 O          63.9701   92.5876   10.0023 O.3     1  UNL1       -0.4223
     35 C          65.1760   93.4789    9.9603 C.ar    1  UNL1        0.3246
     36 N          66.5165   92.9104    9.6001 N.ar    1  UNL1       -0.1924
     37 C          67.7224   93.8017    9.5581 C.ar    1  UNL1        0.1053
     38 C          67.5876   95.2613    9.8762 C.ar    1  UNL1        0.0416
     39 C          66.2470   95.8298   10.2364 C.ar    1  UNL1        0.1053
     40 N          65.0412   94.9385   10.2784 N.ar    1  UNL1       -0.1924
@<TRIPOS>BOND
     1    25    26    3
     2    26    24    1
     3    24    15    1
     4    15    16    1
     5    15    17    1
     6    17    18    1
     7    18    19    1
     8    19     1    1
     9     1     2   ar
    10     2     3   ar
    11     3     4   ar
    12     4     5   ar
    13     5     6   ar
    14     6     7   ar
    15     7     8   ar
    16     8     9   ar
    17     9    10    1
    18     9    11   ar
    19    11    27    1
    20    27    28   ar
    21    28    29   ar
    22    29    30   ar
    23    30    34    1
    24    34    35    1
    25    35    36   ar
    26    36    37   ar
    27    37    38   ar
    28    38    39   ar
    29    39    40   ar
    30    30    31   ar
    31    31    32   ar
    32    32    33    1
    33    11    12   ar
    34    12    13   ar
    35    13    14   ar
    36    19    20    1
    37    20    21    1
    38    21    15    1
    39    14     1   ar
    40    14     4   ar
    41    13     7   ar
    42    32    27   ar
    43    40    35   ar
    44    16    22    1
    45    16    23    1
