@<TRIPOS>MOLECULE
*****
 35 38 0 0 0
SMALL
GASTEIGER

@<TRIPOS>ATOM
      1 C          64.1402   86.4031   15.5368 C.ar    1  UNL1        0.0611
      2 C          63.2853   85.9764   16.6931 C.ar    1  UNL1        0.1037
      3 N          62.7244   87.2105   17.3351 N.ar    1  UNL1       -0.2269
      4 C          63.2327   88.4000   16.5756 C.ar    1  UNL1        0.1407
      5 N          63.0118   89.8731   16.7525 N.ar    1  UNL1       -0.3374
      6 C          63.6660   90.8470   15.8180 C.ar    1  UNL1        0.0735
      7 C          64.5410   90.3480   14.7066 C.ar    1  UNL1        0.0201
      8 C          64.7619   88.8750   14.5297 C.ar    1  UNL1        0.0047
      9 C          64.1078   87.9010   15.4642 C.ar    1  UNL1        0.0386
     10 H          62.4375   90.2006   17.4820 H       1  UNL1        0.1674
     11 C          65.1952   91.3221   13.7720 C.ar    1  UNL1        0.0400
     12 C          66.5166   91.9341   14.1311 C.ar    1  UNL1        0.1052
     13 N          67.1708   92.9082   13.1966 N.ar    1  UNL1       -0.1927
     14 C          66.5034   93.2702   11.9029 C.ar    1  UNL1        0.3201
     15 N          65.1819   92.6580   11.5438 N.ar    1  UNL1       -0.1927
     16 C          64.5278   91.6840   12.4783 C.ar    1  UNL1        0.1052
     17 O          67.1575   94.2442   10.9683 O.3     1  UNL1       -0.4426
     18 C          67.2475   93.9334    9.5037 C.3     1  UNL1        0.2559
     19 C          64.8952   85.4919   14.6149 C.2     1  UNL1        0.1994
     20 O          66.3889   85.3966   14.7119 O.2     1  UNL1       -0.2864
     21 C          62.4615   84.5264   11.6324 C.ar    1  UNL1        0.0919
     22 C          62.6784   83.0440   11.5581 C.ar    1  UNL1        0.0181
     23 C          63.6341   82.3776   12.5028 C.ar    1  UNL1        0.0016
     24 C          64.3731   83.1935   13.5217 C.ar    1  UNL1        0.0055
     25 C          64.1562   84.6759   13.5960 C.ar    1  UNL1        0.0677
     26 C          63.2004   85.3423   12.6513 C.ar    1  UNL1        0.1576
     27 F          62.9836   86.8247   12.7256 F       1  UNL1       -0.2027
     28 N          61.5057   85.1928   10.6877 N.pl3   1  UNL1       -0.2166
     29 H          60.6881   84.7243   10.4028 H       1  UNL1        0.1734
     30 S          61.7957   86.5731   10.1772 S.O2    1  UNL1        0.0540
     31 O          60.7880   87.1386   11.1335 O.2     1  UNL1       -0.1545
     32 O          62.8035   86.0076    9.2208 O.2     1  UNL1       -0.1545
     33 C          62.0858   87.9533    9.6666 C.3     1  UNL1        0.1724
     34 C          61.7897   90.4148   10.4437 C.3     1  UNL1        0.0019
     35 C          62.4024   89.0584   10.6303 C.3     1  UNL1        0.0273
@<TRIPOS>BOND
     1    34    35    1
     2    35    33    1
     3    33    30    1
     4    30    31    2
     5    30    32    2
     6    30    28    1
     7    28    21    1
     8    21    22   ar
     9    22    23   ar
    10    23    24   ar
    11    24    25   ar
    12    25    19    1
    13    19    20    2
    14    19     1    1
    15     1     2   ar
    16     2     3   ar
    17     3     4   ar
    18     4     5   ar
    19     5     6   ar
    20     6     7   ar
    21     7    11    1
    22    11    12   ar
    23    12    13   ar
    24    13    14   ar
    25    14    17    1
    26    17    18    1
    27    14    15   ar
    28    15    16   ar
    29     7     8   ar
    30     8     9   ar
    31    25    26   ar
    32    26    27    1
    33    26    21   ar
    34     9     1   ar
    35     9     4    1
    36    16    11   ar
    37    28    29    1
    38     5    10    1
@<TRIPOS>MOLECULE
*****
 35 38 0 0 0
SMALL
GASTEIGER

@<TRIPOS>ATOM
      1 C          63.8823   86.4468   15.4733 C.ar    1  UNL1        0.0611
      2 C          63.0665   86.0214   16.6580 C.ar    1  UNL1        0.1037
      3 N          62.6360   87.2567   17.3919 N.ar    1  UNL1       -0.2269
      4 C          63.1857   88.4455   16.6609 C.ar    1  UNL1        0.1407
      5 N          63.0844   89.9192   16.9219 N.ar    1  UNL1       -0.3374
      6 C          63.7534   90.8923   15.9970 C.ar    1  UNL1        0.0735
      7 C          64.5236   90.3918   14.8111 C.ar    1  UNL1        0.0201
      8 C          64.6249   88.9181   14.5502 C.ar    1  UNL1        0.0047
      9 C          63.9560   87.9450   15.4751 C.ar    1  UNL1        0.0386
     10 H          62.5788   90.2477   17.7001 H       1  UNL1        0.1674
     11 C          65.1926   91.3650   13.8862 C.ar    1  UNL1        0.0400
     12 C          66.5375   91.9293   14.2364 C.ar    1  UNL1        0.1052
     13 N          67.2065   92.9025   13.3115 N.ar    1  UNL1       -0.1927
     14 C          66.5305   93.3113   12.0364 C.ar    1  UNL1        0.3201
     15 N          65.1856   92.7469   11.6862 N.ar    1  UNL1       -0.1927
     16 C          64.5167   91.7738   12.6111 C.ar    1  UNL1        0.1052
     17 O          67.1995   94.2845   11.1115 O.3     1  UNL1       -0.4426
     18 C          66.4435   95.4755   10.6016 C.3     1  UNL1        0.2559
     19 C          64.5136   85.5343   14.4639 C.2     1  UNL1        0.1994
     20 O          65.9321   85.0820   14.6455 O.2     1  UNL1       -0.2864
     21 C          62.4350   85.6141   11.0840 C.ar    1  UNL1        0.0919
     22 C          62.1517   84.1538   10.8910 C.ar    1  UNL1        0.0181
     23 C          62.6556   83.1537   11.8889 C.ar    1  UNL1        0.0016
     24 C          63.4429   83.6138   13.0799 C.ar    1  UNL1        0.0055
     25 C          63.7262   85.0741   13.2729 C.ar    1  UNL1        0.0677
     26 C          63.2223   86.0742   12.2750 C.ar    1  UNL1        0.1576
     27 F          63.5057   87.5345   12.4681 F       1  UNL1       -0.2027
     28 N          61.9311   86.6142   10.0861 N.pl3   1  UNL1       -0.2166
     29 H          61.9188   87.5722   10.3126 H       1  UNL1        0.1734
     30 S          61.4460   86.1546    8.7432 S.O2    1  UNL1        0.0540
     31 O          62.8537   85.8173    8.3501 O.2     1  UNL1       -0.1545
     32 O          60.0383   86.4919    9.1363 O.2     1  UNL1       -0.1545
     33 C          60.9608   85.6950    7.4004 C.3     1  UNL1        0.1724
     34 C          62.1540   84.4162    5.4791 C.3     1  UNL1        0.0019
     35 C          61.4740   84.4123    6.8161 C.3     1  UNL1        0.0273
@<TRIPOS>BOND
     1    34    35    1
     2    35    33    1
     3    33    30    1
     4    30    31    2
     5    30    32    2
     6    30    28    1
     7    28    21    1
     8    21    22   ar
     9    22    23   ar
    10    23    24   ar
    11    24    25   ar
    12    25    19    1
    13    19    20    2
    14    19     1    1
    15     1     2   ar
    16     2     3   ar
    17     3     4   ar
    18     4     5   ar
    19     5     6   ar
    20     6     7   ar
    21     7    11    1
    22    11    12   ar
    23    12    13   ar
    24    13    14   ar
    25    14    17    1
    26    17    18    1
    27    14    15   ar
    28    15    16   ar
    29     7     8   ar
    30     8     9   ar
    31    25    26   ar
    32    26    27    1
    33    26    21   ar
    34     9     1   ar
    35     9     4    1
    36    16    11   ar
    37    28    29    1
    38     5    10    1
@<TRIPOS>MOLECULE
*****
 35 38 0 0 0
SMALL
GASTEIGER

@<TRIPOS>ATOM
      1 C          63.9408   88.1561   14.2167 C.ar    1  UNL1        0.0611
      2 C          64.6659   87.1119   15.0128 C.ar    1  UNL1        0.1037
      3 N          64.4892   85.7941   14.3184 N.ar    1  UNL1       -0.2269
      4 C          63.6549   86.0239   13.0931 C.ar    1  UNL1        0.1407
      5 N          63.1601   85.0925   12.0266 N.ar    1  UNL1       -0.3374
      6 C          62.3264   85.6209   10.8972 C.ar    1  UNL1        0.0735
      7 C          61.9874   87.0808   10.8343 C.ar    1  UNL1        0.0201
      8 C          62.4823   88.0122   11.9009 C.ar    1  UNL1        0.0047
      9 C          63.3160   87.4838   13.0303 C.ar    1  UNL1        0.0386
     10 H          63.3825   84.1343   12.0679 H       1  UNL1        0.1674
     11 C          61.1537   87.6092    9.7048 C.ar    1  UNL1        0.0400
     12 C          60.5375   86.6605    8.7198 C.ar    1  UNL1        0.1052
     13 N          59.7037   87.1890    7.5903 N.ar    1  UNL1       -0.1927
     14 C          59.4862   88.6661    7.4460 C.ar    1  UNL1        0.3201
     15 N          60.1024   89.6147    8.4311 N.ar    1  UNL1       -0.1927
     16 C          60.9361   89.0863    9.5605 C.ar    1  UNL1        0.1052
     17 O          58.6524   89.1945    6.3165 O.3     1  UNL1       -0.4426
     18 C          59.0205   90.4892    5.6546 C.3     1  UNL1        0.2559
     19 C          63.8555   89.6165   14.5486 C.2     1  UNL1        0.1994
     20 O          62.7485   90.1230   15.4249 O.2     1  UNL1       -0.2864
     21 C          65.6210   92.2789   12.1939 C.ar    1  UNL1        0.0919
     22 C          66.9208   92.4779   12.9156 C.ar    1  UNL1        0.0181
     23 C          67.1988   91.7231   14.1817 C.ar    1  UNL1        0.0016
     24 C          66.1771   90.7693   14.7261 C.ar    1  UNL1        0.0055
     25 C          64.8773   90.5703   14.0043 C.ar    1  UNL1        0.0677
     26 C          64.5993   91.3252   12.7383 C.ar    1  UNL1        0.1576
     27 F          63.2994   91.1261   12.0166 F       1  UNL1       -0.2027
     28 N          65.3429   93.0338   10.9278 N.pl3   1  UNL1       -0.2166
     29 H          64.4868   92.9088   10.4581 H       1  UNL1        0.1734
     30 S          66.3693   93.9791   10.3775 S.O2    1  UNL1        0.0540
     31 O          65.6531   95.1303   11.0191 O.2     1  UNL1       -0.1545
     32 O          67.0855   92.8279    9.7358 O.2     1  UNL1       -0.1545
     33 C          67.3957   94.9243    9.8271 C.3     1  UNL1        0.1724
     34 C          67.1985   96.8105    8.0511 C.3     1  UNL1        0.0019
     35 C          67.3254   95.3552    8.3920 C.3     1  UNL1        0.0273
@<TRIPOS>BOND
     1    34    35    1
     2    35    33    1
     3    33    30    1
     4    30    31    2
     5    30    32    2
     6    30    28    1
     7    28    21    1
     8    21    22   ar
     9    22    23   ar
    10    23    24   ar
    11    24    25   ar
    12    25    19    1
    13    19    20    2
    14    19     1    1
    15     1     2   ar
    16     2     3   ar
    17     3     4   ar
    18     4     5   ar
    19     5     6   ar
    20     6     7   ar
    21     7    11    1
    22    11    12   ar
    23    12    13   ar
    24    13    14   ar
    25    14    17    1
    26    17    18    1
    27    14    15   ar
    28    15    16   ar
    29     7     8   ar
    30     8     9   ar
    31    25    26   ar
    32    26    27    1
    33    26    21   ar
    34     9     1   ar
    35     9     4    1
    36    16    11   ar
    37    28    29    1
    38     5    10    1
@<TRIPOS>MOLECULE
*****
 35 38 0 0 0
SMALL
GASTEIGER

@<TRIPOS>ATOM
      1 C          63.0002   89.9511   12.1166 C.ar    1  UNL1        0.0611
      2 C          62.6939   90.8973   10.9936 C.ar    1  UNL1        0.1037
      3 N          62.2614   90.0856    9.8086 N.ar    1  UNL1       -0.2269
      4 C          62.3004   88.6378   10.1992 C.ar    1  UNL1        0.1407
      5 N          61.9792   87.3845    9.4404 N.ar    1  UNL1       -0.3374
      6 C          62.1145   86.0481   10.1079 C.ar    1  UNL1        0.0735
      7 C          62.5711   85.9650   11.5343 C.ar    1  UNL1        0.0201
      8 C          62.8923   87.2184   12.2932 C.ar    1  UNL1        0.0047
      9 C          62.7570   88.5548   11.6256 C.ar    1  UNL1        0.0386
     10 H          61.6795   87.4390    8.5042 H       1  UNL1        0.1674
     11 C          62.7065   84.6285   12.2018 C.ar    1  UNL1        0.0400
     12 C          62.7942   83.3816   11.3728 C.ar    1  UNL1        0.1052
     13 N          62.9296   82.0451   12.0403 N.ar    1  UNL1       -0.1927
     14 C          62.9771   81.9556   13.5369 C.ar    1  UNL1        0.3201
     15 N          62.8894   83.2027   14.3660 N.ar    1  UNL1       -0.1927
     16 C          62.7540   84.5391   13.6984 C.ar    1  UNL1        0.1052
     17 O          63.1125   80.6192   14.2045 O.3     1  UNL1       -0.4426
     18 C          62.4200   79.4197   13.6286 C.3     1  UNL1        0.2559
     19 C          63.4676   90.3342   13.4895 C.2     1  UNL1        0.1994
     20 O          62.6277   90.0030   14.6873 O.2     1  UNL1       -0.2864
     21 C          66.3803   92.9906   13.0310 C.ar    1  UNL1        0.0919
     22 C          67.3897   92.4770   14.0146 C.ar    1  UNL1        0.0181
     23 C          67.0917   91.2492   14.8231 C.ar    1  UNL1        0.0016
     24 C          65.7844   90.5349   14.6481 C.ar    1  UNL1        0.0055
     25 C          64.7750   91.0485   13.6645 C.ar    1  UNL1        0.0677
     26 C          65.0730   92.2763   12.8560 C.ar    1  UNL1        0.1576
     27 F          64.0635   92.7898   11.8725 F       1  UNL1       -0.2027
     28 N          66.6782   94.2184   12.2225 N.pl3   1  UNL1       -0.2166
     29 H          66.8622   95.0731   12.6751 H       1  UNL1        0.1734
     30 S          66.6959   94.1439   10.7245 S.O2    1  UNL1        0.0540
     31 O          67.8118   93.1436   10.7874 O.2     1  UNL1       -0.1545
     32 O          65.5799   95.1442   10.6616 O.2     1  UNL1       -0.1545
     33 C          66.7135   94.0695    9.2265 C.3     1  UNL1        0.1724
     34 C          67.3532   96.3888    8.2456 C.3     1  UNL1        0.0019
     35 C          67.6574   94.9334    8.4437 C.3     1  UNL1        0.0273
@<TRIPOS>BOND
     1    34    35    1
     2    35    33    1
     3    33    30    1
     4    30    31    2
     5    30    32    2
     6    30    28    1
     7    28    21    1
     8    21    22   ar
     9    22    23   ar
    10    23    24   ar
    11    24    25   ar
    12    25    19    1
    13    19    20    2
    14    19     1    1
    15     1     2   ar
    16     2     3   ar
    17     3     4   ar
    18     4     5   ar
    19     5     6   ar
    20     6     7   ar
    21     7    11    1
    22    11    12   ar
    23    12    13   ar
    24    13    14   ar
    25    14    17    1
    26    17    18    1
    27    14    15   ar
    28    15    16   ar
    29     7     8   ar
    30     8     9   ar
    31    25    26   ar
    32    26    27    1
    33    26    21   ar
    34     9     1   ar
    35     9     4    1
    36    16    11   ar
    37    28    29    1
    38     5    10    1
@<TRIPOS>MOLECULE
*****
 35 38 0 0 0
SMALL
GASTEIGER

@<TRIPOS>ATOM
      1 C          61.5078   86.1482    8.6416 C.ar    1  UNL1        0.0611
      2 C          61.9502   85.5077    7.3595 C.ar    1  UNL1        0.1037
      3 N          62.9483   84.4395    7.6953 N.ar    1  UNL1       -0.2269
      4 C          63.1227   84.4199    9.1850 C.ar    1  UNL1        0.1407
      5 N          63.9772   83.5769   10.0845 N.ar    1  UNL1       -0.3374
      6 C          63.9413   83.7899   11.5689 C.ar    1  UNL1        0.0735
      7 C          63.0510   84.8460   12.1537 C.ar    1  UNL1        0.0201
      8 C          62.1965   85.6890   11.2542 C.ar    1  UNL1        0.0047
      9 C          62.2324   85.4760    9.7699 C.ar    1  UNL1        0.0386
     10 H          64.5616   82.8838    9.7007 H       1  UNL1        0.1674
     11 C          63.0151   85.0590   13.6381 C.ar    1  UNL1        0.0400
     12 C          63.9002   86.0927   14.2690 C.ar    1  UNL1        0.1052
     13 N          63.8644   86.3057   15.7535 N.ar    1  UNL1       -0.1927
     14 C          62.9434   85.4849   16.6069 C.ar    1  UNL1        0.3201
     15 N          62.0583   84.4512   15.9759 N.ar    1  UNL1       -0.1927
     16 C          62.0942   84.2382   14.4915 C.ar    1  UNL1        0.1052
     17 O          62.9076   85.6979   18.0912 O.3     1  UNL1       -0.4426
     18 C          62.6540   87.0681   18.6464 C.3     1  UNL1        0.2559
     19 C          60.5149   87.2650    8.7725 C.2     1  UNL1        0.1994
     20 O          59.4513   87.4489    7.7311 O.2     1  UNL1       -0.2864
     21 C          61.9157   89.8997   11.3891 C.ar    1  UNL1        0.0919
     22 C          60.7275   90.0637   12.2900 C.ar    1  UNL1        0.0181
     23 C          59.4686   89.2948   12.0183 C.ar    1  UNL1        0.0016
     24 C          59.3977   88.3619   10.8459 C.ar    1  UNL1        0.0055
     25 C          60.5858   88.1979    9.9451 C.ar    1  UNL1        0.0677
     26 C          61.8447   88.9668   10.2167 C.ar    1  UNL1        0.1576
     27 F          63.0328   88.8028    9.3158 F       1  UNL1       -0.2027
     28 N          63.1746   90.6686   11.6608 N.pl3   1  UNL1       -0.2166
     29 H          63.5231   91.2963   10.9871 H       1  UNL1        0.1734
     30 S          63.9026   90.4811   12.9588 S.O2    1  UNL1        0.0540
     31 O          63.6960   88.9987   12.8605 O.2     1  UNL1       -0.1545
     32 O          64.1093   91.9635   13.0570 O.2     1  UNL1       -0.1545
     33 C          64.6307   90.2937   14.2567 C.3     1  UNL1        0.1724
     34 C          63.2291   89.6990   16.3620 C.3     1  UNL1        0.0019
     35 C          63.9838   90.7060   15.5458 C.3     1  UNL1        0.0273
@<TRIPOS>BOND
     1    34    35    1
     2    35    33    1
     3    33    30    1
     4    30    31    2
     5    30    32    2
     6    30    28    1
     7    28    21    1
     8    21    22   ar
     9    22    23   ar
    10    23    24   ar
    11    24    25   ar
    12    25    19    1
    13    19    20    2
    14    19     1    1
    15     1     2   ar
    16     2     3   ar
    17     3     4   ar
    18     4     5   ar
    19     5     6   ar
    20     6     7   ar
    21     7    11    1
    22    11    12   ar
    23    12    13   ar
    24    13    14   ar
    25    14    17    1
    26    17    18    1
    27    14    15   ar
    28    15    16   ar
    29     7     8   ar
    30     8     9   ar
    31    25    26   ar
    32    26    27    1
    33    26    21   ar
    34     9     1   ar
    35     9     4    1
    36    16    11   ar
    37    28    29    1
    38     5    10    1
@<TRIPOS>MOLECULE
*****
 35 38 0 0 0
SMALL
GASTEIGER

@<TRIPOS>ATOM
      1 C          63.9882   87.5286   14.1951 C.ar    1  UNL1        0.0611
      2 C          64.6730   86.4305   14.9535 C.ar    1  UNL1        0.1037
      3 N          64.4177   85.1401   14.2326 N.ar    1  UNL1       -0.2269
      4 C          63.5750   85.4407   13.0286 C.ar    1  UNL1        0.1407
      5 N          63.0151   84.5610   11.9503 N.ar    1  UNL1       -0.3374
      6 C          62.1898   85.1575   10.8490 C.ar    1  UNL1        0.0735
      7 C          61.9244   86.6337   10.8258 C.ar    1  UNL1        0.0201
      8 C          62.4843   87.5133   11.9040 C.ar    1  UNL1        0.0047
      9 C          63.3096   86.9169   13.0054 C.ar    1  UNL1        0.0386
     10 H          63.1893   83.5922   11.9655 H       1  UNL1        0.1674
     11 C          61.0990   87.2301    9.7244 C.ar    1  UNL1        0.0400
     12 C          60.4419   86.3387    8.7127 C.ar    1  UNL1        0.1052
     13 N          59.6165   86.9352    7.6112 N.ar    1  UNL1       -0.1927
     14 C          59.4484   88.4230    7.5215 C.ar    1  UNL1        0.3201
     15 N          60.1056   89.3144    8.5333 N.ar    1  UNL1       -0.1927
     16 C          60.9309   88.7179    9.6347 C.ar    1  UNL1        0.1052
     17 O          58.6231   89.0195    6.4202 O.3     1  UNL1       -0.4426
     18 C          59.0803   90.2730    5.7351 C.3     1  UNL1        0.2559
     19 C          63.9829   88.9830   14.5619 C.2     1  UNL1        0.1994
     20 O          63.7409   89.3972   15.9831 O.2     1  UNL1       -0.2864
     21 C          65.6523   91.9645   12.5435 C.ar    1  UNL1        0.0919
     22 C          64.6931   92.1039   11.3987 C.ar    1  UNL1        0.0181
     23 C          63.4972   91.2030   11.3083 C.ar    1  UNL1        0.0016
     24 C          63.2605   90.1627   12.3627 C.ar    1  UNL1        0.0055
     25 C          64.2197   90.0233   13.5075 C.ar    1  UNL1        0.0677
     26 C          65.4156   90.9242   13.5979 C.ar    1  UNL1        0.1576
     27 F          66.3747   90.7848   14.7427 F       1  UNL1       -0.2027
     28 N          66.8482   92.8654   12.6339 N.pl3   1  UNL1       -0.2166
     29 H          67.3110   93.1530   11.8139 H       1  UNL1        0.1734
     30 S          67.3390   93.3282   13.9736 S.O2    1  UNL1        0.0540
     31 O          66.0861   94.1327   14.1548 O.2     1  UNL1       -0.1545
     32 O          68.5920   92.5237   13.7925 O.2     1  UNL1       -0.1545
     33 C          67.8299   93.7909   15.3134 C.3     1  UNL1        0.1724
     34 C          68.8897   91.9173   16.7683 C.3     1  UNL1        0.0019
     35 C          69.0389   93.1526   15.9306 C.3     1  UNL1        0.0273
@<TRIPOS>BOND
     1    34    35    1
     2    35    33    1
     3    33    30    1
     4    30    31    2
     5    30    32    2
     6    30    28    1
     7    28    21    1
     8    21    22   ar
     9    22    23   ar
    10    23    24   ar
    11    24    25   ar
    12    25    19    1
    13    19    20    2
    14    19     1    1
    15     1     2   ar
    16     2     3   ar
    17     3     4   ar
    18     4     5   ar
    19     5     6   ar
    20     6     7   ar
    21     7    11    1
    22    11    12   ar
    23    12    13   ar
    24    13    14   ar
    25    14    17    1
    26    17    18    1
    27    14    15   ar
    28    15    16   ar
    29     7     8   ar
    30     8     9   ar
    31    25    26   ar
    32    26    27    1
    33    26    21   ar
    34     9     1   ar
    35     9     4    1
    36    16    11   ar
    37    28    29    1
    38     5    10    1
@<TRIPOS>MOLECULE
*****
 35 38 0 0 0
SMALL
GASTEIGER

@<TRIPOS>ATOM
      1 C          63.2320   89.9903   13.3575 C.ar    1  UNL1        0.0611
      2 C          63.1489   89.4569   14.7571 C.ar    1  UNL1        0.1037
      3 N          64.1104   90.2337   15.6068 N.ar    1  UNL1       -0.2269
      4 C          64.7877   91.2471   14.7325 C.ar    1  UNL1        0.1407
      5 N          65.8286   92.2874   15.0227 N.ar    1  UNL1       -0.3374
      6 C          66.3266   93.1772   13.9226 C.ar    1  UNL1        0.0735
      7 C          65.7837   93.0267   12.5325 C.ar    1  UNL1        0.0201
      8 C          64.7428   91.9864   12.2423 C.ar    1  UNL1        0.0047
      9 C          64.2448   91.0966   13.3424 C.ar    1  UNL1        0.0386
     10 H          66.1850   92.3861   15.9351 H       1  UNL1        0.1674
     11 C          66.2817   93.9166   11.4324 C.ar    1  UNL1        0.0400
     12 C          66.2019   95.4072   11.5794 C.ar    1  UNL1        0.1052
     13 N          66.7000   96.2972   10.4793 N.ar    1  UNL1       -0.1927
     14 C          67.2778   95.6964    9.2323 C.ar    1  UNL1        0.3201
     15 N          67.3576   94.2057    9.0853 N.ar    1  UNL1       -0.1927
     16 C          66.8596   93.3158   10.1853 C.ar    1  UNL1        0.1052
     17 O          67.7759   96.5862    8.1322 O.3     1  UNL1       -0.4426
     18 C          66.9134   96.8520    6.9342 C.3     1  UNL1        0.2559
     19 C          62.4410   89.5028   12.1799 C.2     1  UNL1        0.1994
     20 O          61.7330   90.4843   11.2938 O.2     1  UNL1       -0.2864
     21 C          63.1817   85.6060   12.3107 C.ar    1  UNL1        0.0919
     22 C          62.1925   85.0956   11.3052 C.ar    1  UNL1        0.0181
     23 C          61.2862   86.0542   10.5913 C.ar    1  UNL1        0.0016
     24 C          61.3690   87.5232   10.8828 C.ar    1  UNL1        0.0055
     25 C          62.3582   88.0337   11.8883 C.ar    1  UNL1        0.0677
     26 C          63.2645   87.0751   12.6022 C.ar    1  UNL1        0.1576
     27 F          64.2537   87.5856   13.6077 F       1  UNL1       -0.2027
     28 N          64.0880   84.6474   13.0246 N.pl3   1  UNL1       -0.2166
     29 H          65.0617   84.7927   13.0178 H       1  UNL1        0.1734
     30 S          63.5107   83.4675   13.7489 S.O2    1  UNL1        0.0540
     31 O          62.8032   84.3934   14.6933 O.2     1  UNL1       -0.1545
     32 O          64.2183   82.5416   12.8044 O.2     1  UNL1       -0.1545
     33 C          62.9335   82.2876   14.4731 C.3     1  UNL1        0.1724
     34 C          61.4433   80.2536   13.8466 C.3     1  UNL1        0.0019
     35 C          61.6042   81.7298   14.0583 C.3     1  UNL1        0.0273
@<TRIPOS>BOND
     1    34    35    1
     2    35    33    1
     3    33    30    1
     4    30    31    2
     5    30    32    2
     6    30    28    1
     7    28    21    1
     8    21    22   ar
     9    22    23   ar
    10    23    24   ar
    11    24    25   ar
    12    25    19    1
    13    19    20    2
    14    19     1    1
    15     1     2   ar
    16     2     3   ar
    17     3     4   ar
    18     4     5   ar
    19     5     6   ar
    20     6     7   ar
    21     7    11    1
    22    11    12   ar
    23    12    13   ar
    24    13    14   ar
    25    14    17    1
    26    17    18    1
    27    14    15   ar
    28    15    16   ar
    29     7     8   ar
    30     8     9   ar
    31    25    26   ar
    32    26    27    1
    33    26    21   ar
    34     9     1   ar
    35     9     4    1
    36    16    11   ar
    37    28    29    1
    38     5    10    1
