@<TRIPOS>MOLECULE
*****
 33 35 0 0 0
SMALL
GASTEIGER

@<TRIPOS>ATOM
      1 C          64.6406   89.9485   13.5997 C.ar    1  UNL1        0.0594
      2 C          65.0905   89.1221   14.7679 C.ar    1  UNL1        0.0164
      3 C          64.6713   87.6860   14.8764 C.ar    1  UNL1        0.0181
      4 C          63.8021   87.0763   13.8168 C.ar    1  UNL1        0.0758
      5 C          63.3522   87.9026   12.6486 C.ar    1  UNL1        0.1546
      6 F          62.4830   87.2928   11.5890 F       1  UNL1       -0.2028
      7 C          63.7714   89.3388   12.5401 C.ar    1  UNL1        0.0459
      8 N          63.3829   85.6401   13.9254 N.pl3   1  UNL1       -0.3025
      9 C          62.8634   85.2135   15.2664 C.3     1  UNL1        0.1096
     10 C          62.3712   83.8619   15.6919 C.3     1  UNL1        0.1092
     11 N          62.2772   82.6032   14.8816 N.3     1  UNL1       -0.2248
     12 N          62.6520   82.3850   13.4457 N.am    1  UNL1       -0.2182
     13 C          62.4369   80.9965   12.9206 C.2     1  UNL1        0.3060
     14 O          61.8795   79.9328   13.8193 O.2     1  UNL1       -0.2675
     15 C          63.2134   83.3718   12.4654 C.3     1  UNL1        0.1328
     16 C          63.5387   84.8205   12.6790 C.3     1  UNL1        0.1140
     17 H          61.2930   82.3401   14.9316 H       1  UNL1        0.1453
     18 C          62.7794   80.6717   11.4968 C.3     1  UNL1        0.3942
     19 F          63.1729   81.7678   10.5512 F       1  UNL1       -0.1880
     20 F          62.7283   79.2509   11.0185 F       1  UNL1       -0.1880
     21 C          65.7539   93.5239   12.5789 C.3     1  UNL1        0.2101
     22 C          65.3855   92.1145   12.2217 C.3     1  UNL1        0.1468
     23 N          65.0598   91.3846   13.4911 N.am    1  UNL1       -0.2212
     24 C          65.2268   92.3430   14.6328 C.2     1  UNL1        0.4088
     25 O          65.0040   92.0336   16.0835 O.2     1  UNL1       -0.2258
     26 O          65.6558   93.6652   14.0690 O.3     1  UNL1       -0.4345
     27 C          66.1507   94.6028   11.6152 C.3     1  UNL1        0.1358
     28 N          66.1284   94.3355   10.1394 N.am    1  UNL1       -0.2954
     29 H          65.3142   93.9791    9.7159 H       1  UNL1        0.1502
     30 C          67.3466   94.6111    9.3087 C.2     1  UNL1        0.2296
     31 S          67.2738   95.5859    8.1710 S.2     1  UNL1        0.0058
     32 C          68.8251   92.4765    9.2225 C.3     1  UNL1        0.2545
     33 O          68.6376   93.9119    9.6158 O.3     1  UNL1       -0.4543
@<TRIPOS>BOND
     1    32    33    1
     2    33    30    1
     3    30    31    2
     4    30    28    1
     5    28    27    1
     6    21    27    1
     7    21    22    1
     8    22    23    1
     9    23     1    1
    10     1     2   ar
    11     2     3   ar
    12     3     4   ar
    13     4     8    1
    14     8     9    1
    15     9    10    1
    16    10    11    1
    17    11    12    1
    18    12    13   am
    19    13    14    2
    20    13    18    1
    21    18    19    1
    22    18    20    1
    23    12    15    1
    24    15    16    1
    25     4     5   ar
    26     5     6    1
    27     5     7   ar
    28    23    24   am
    29    24    25    2
    30    24    26    1
    31    26    21    1
    32     7     1   ar
    33    16     8    1
    34    28    29    1
    35    11    17    1
@<TRIPOS>MOLECULE
*****
 33 35 0 0 0
SMALL
GASTEIGER

@<TRIPOS>ATOM
      1 C          64.4258   89.0738   14.2398 C.ar    1  UNL1        0.0594
      2 C          64.8240   88.0449   15.2562 C.ar    1  UNL1        0.0164
      3 C          64.4620   86.6044   15.0465 C.ar    1  UNL1        0.0181
      4 C          63.7019   86.1927   13.8206 C.ar    1  UNL1        0.0758
      5 C          63.3037   87.2216   12.8043 C.ar    1  UNL1        0.1546
      6 F          62.5436   86.8100   11.5784 F       1  UNL1       -0.2028
      7 C          63.6657   88.6622   13.0139 C.ar    1  UNL1        0.0459
      8 N          63.3400   84.7522   13.6111 N.pl3   1  UNL1       -0.3025
      9 C          62.7115   84.0617   14.7851 C.3     1  UNL1        0.1096
     10 C          62.2422   82.6411   14.8933 C.3     1  UNL1        0.1092
     11 N          62.2855   81.5602   13.8542 N.3     1  UNL1       -0.2248
     12 N          62.8088   81.6328   12.4503 N.am    1  UNL1       -0.2182
     13 C          62.7097   80.3665   11.6525 C.2     1  UNL1        0.3060
     14 O          62.1159   79.1354   12.2703 O.2     1  UNL1       -0.2675
     15 C          63.4180   82.8044   11.7388 C.3     1  UNL1        0.1328
     16 C          63.6544   84.1926   12.2554 C.3     1  UNL1        0.1140
     17 H          61.3141   81.2669   13.7500 H       1  UNL1        0.1453
     18 C          63.2045   80.3314   10.2368 C.3     1  UNL1        0.3942
     19 F          62.7289   79.2584    9.3026 F       1  UNL1       -0.1880
     20 F          64.1747   81.3691    9.7554 F       1  UNL1       -0.1880
     21 C          65.7467   92.7221   14.1389 C.3     1  UNL1        0.2101
     22 C          65.6509   91.3466   13.5482 C.3     1  UNL1        0.1468
     23 N          64.7877   90.5142   14.4494 N.am    1  UNL1       -0.2212
     24 C          64.3499   91.3753   15.5970 C.2     1  UNL1        0.4088
     25 O          63.4735   90.9471   16.7364 O.2     1  UNL1       -0.2258
     26 O          64.9427   92.7398   15.4050 O.3     1  UNL1       -0.4345
     27 C          66.5121   93.8770   13.5642 C.3     1  UNL1        0.1358
     28 N          66.0996   94.4704   12.2497 N.am    1  UNL1       -0.2954
     29 H          65.3605   95.1197   12.2130 H       1  UNL1        0.1502
     30 C          66.8134   94.0745   10.9912 C.2     1  UNL1        0.2296
     31 S          66.7810   94.9785    9.7946 S.2     1  UNL1        0.0058
     32 C          68.2068   92.3420    9.6473 C.3     1  UNL1        0.2545
     33 O          67.5594   92.7748   10.9293 O.3     1  UNL1       -0.4543
@<TRIPOS>BOND
     1    32    33    1
     2    33    30    1
     3    30    31    2
     4    30    28    1
     5    28    27    1
     6    21    27    1
     7    21    22    1
     8    22    23    1
     9    23     1    1
    10     1     2   ar
    11     2     3   ar
    12     3     4   ar
    13     4     8    1
    14     8     9    1
    15     9    10    1
    16    10    11    1
    17    11    12    1
    18    12    13   am
    19    13    14    2
    20    13    18    1
    21    18    19    1
    22    18    20    1
    23    12    15    1
    24    15    16    1
    25     4     5   ar
    26     5     6    1
    27     5     7   ar
    28    23    24   am
    29    24    25    2
    30    24    26    1
    31    26    21    1
    32     7     1   ar
    33    16     8    1
    34    28    29    1
    35    11    17    1
@<TRIPOS>MOLECULE
*****
 33 35 0 0 0
SMALL
GASTEIGER

@<TRIPOS>ATOM
      1 C          63.7999   87.7192   13.5206 C.ar    1  UNL1        0.0594
      2 C          64.4269   86.7307   14.4586 C.ar    1  UNL1        0.0164
      3 C          64.2141   85.2605   14.2507 C.ar    1  UNL1        0.0181
      4 C          63.3744   84.7788   13.1049 C.ar    1  UNL1        0.0758
      5 C          62.7474   85.7672   12.1670 C.ar    1  UNL1        0.1546
      6 F          61.9077   85.2855   11.0212 F       1  UNL1       -0.2028
      7 C          62.9602   87.2375   12.3748 C.ar    1  UNL1        0.0459
      8 N          63.1617   83.3085   12.8971 N.pl3   1  UNL1       -0.3025
      9 C          62.8650   82.5128   14.1337 C.3     1  UNL1        0.1096
     10 C          62.6072   81.0403   14.2588 C.3     1  UNL1        0.1092
     11 N          62.5823   80.0002   13.1784 N.3     1  UNL1       -0.2248
     12 N          62.8091   80.1753   11.7060 N.am    1  UNL1       -0.2182
     13 C          62.7158   78.9268   10.8800 C.2     1  UNL1        0.3060
     14 O          62.4123   77.6133   11.5378 O.2     1  UNL1       -0.2675
     15 C          63.1168   81.4341   10.9504 C.3     1  UNL1        0.1328
     16 C          63.2737   82.8284   11.4806 C.3     1  UNL1        0.1140
     17 H          61.6537   79.5837   13.2461 H       1  UNL1        0.1453
     18 C          62.9261   78.9916    9.3962 C.3     1  UNL1        0.3942
     19 F          64.1728   78.4189    8.7897 F       1  UNL1       -0.1880
     20 F          61.8897   79.6291    8.5190 F       1  UNL1       -0.1880
     21 C          64.7327   91.3070   14.6707 C.3     1  UNL1        0.2101
     22 C          64.7730   89.8192   14.8577 C.3     1  UNL1        0.1468
     23 N          64.0126   89.1894   13.7285 N.am    1  UNL1       -0.2212
     24 C          63.5024   90.2879   12.8436 C.2     1  UNL1        0.4088
     25 O          62.6898   90.1090   11.5956 O.2     1  UNL1       -0.2258
     26 O          63.9474   91.5966   13.4260 O.3     1  UNL1       -0.4345
     27 C          65.3664   92.3262   15.5705 C.3     1  UNL1        0.1358
     28 N          66.3642   93.2993   15.0159 N.am    1  UNL1       -0.2954
     29 H          66.1253   94.2498   14.9224 H       1  UNL1        0.1502
     30 C          67.7260   92.8242   14.6038 C.2     1  UNL1        0.2296
     31 S          68.8159   92.6937   15.6261 S.2     1  UNL1        0.0058
     32 C          66.9179   92.6428   12.1414 C.3     1  UNL1        0.2545
     33 O          67.9978   92.4797   13.1696 O.3     1  UNL1       -0.4543
@<TRIPOS>BOND
     1    32    33    1
     2    33    30    1
     3    30    31    2
     4    30    28    1
     5    28    27    1
     6    21    27    1
     7    21    22    1
     8    22    23    1
     9    23     1    1
    10     1     2   ar
    11     2     3   ar
    12     3     4   ar
    13     4     8    1
    14     8     9    1
    15     9    10    1
    16    10    11    1
    17    11    12    1
    18    12    13   am
    19    13    14    2
    20    13    18    1
    21    18    19    1
    22    18    20    1
    23    12    15    1
    24    15    16    1
    25     4     5   ar
    26     5     6    1
    27     5     7   ar
    28    23    24   am
    29    24    25    2
    30    24    26    1
    31    26    21    1
    32     7     1   ar
    33    16     8    1
    34    28    29    1
    35    11    17    1
@<TRIPOS>MOLECULE
*****
 33 35 0 0 0
SMALL
GASTEIGER

@<TRIPOS>ATOM
      1 C          60.5524   91.7713    4.0047 C.ar    1  UNL1        0.0594
      2 C          61.9853   91.3944    3.7700 C.ar    1  UNL1        0.0164
      3 C          62.8098   92.1615    2.7791 C.ar    1  UNL1        0.0181
      4 C          62.2017   93.3054    2.0231 C.ar    1  UNL1        0.0758
      5 C          60.7689   93.6822    2.2578 C.ar    1  UNL1        0.1546
      6 F          60.1607   94.8261    1.5017 F       1  UNL1       -0.2028
      7 C          59.9442   92.9152    3.2486 C.ar    1  UNL1        0.0459
      8 N          63.0263   94.0723    1.0323 N.pl3   1  UNL1       -0.3025
      9 C          63.9153   95.1342    1.6090 C.3     1  UNL1        0.1096
     10 C          64.8505   96.0620    0.8916 C.3     1  UNL1        0.1092
     11 N          65.1277   96.1572   -0.5794 N.3     1  UNL1       -0.2248
     12 N          64.5382   95.3481   -1.6966 N.am    1  UNL1       -0.2182
     13 C          65.0255   95.6881   -3.0738 C.2     1  UNL1        0.3060
     14 O          66.0390   96.7776   -3.2631 O.2     1  UNL1       -0.2675
     15 C          63.5259   94.2440   -1.6185 C.3     1  UNL1        0.1328
     16 C          62.8531   93.6762   -0.4040 C.3     1  UNL1        0.1140
     17 H          66.1337   96.0092   -0.6599 H       1  UNL1        0.1453
     18 C          64.4993   94.9386   -4.2618 C.3     1  UNL1        0.3942
     19 F          65.0894   93.6100   -4.6320 F       1  UNL1       -0.1880
     20 F          63.3831   95.5175   -5.0797 F       1  UNL1       -0.1880
     21 C          59.0627   89.4226    6.7120 C.3     1  UNL1        0.2101
     22 C          60.2202   89.9040    5.8883 C.3     1  UNL1        0.1468
     23 N          59.7278   91.0043    4.9955 N.am    1  UNL1       -0.2212
     24 C          58.2661   91.2029    5.2675 C.2     1  UNL1        0.4088
     25 O          57.3724   92.2033    4.5964 O.2     1  UNL1       -0.2258
     26 O          57.8551   90.2253    6.3283 O.3     1  UNL1       -0.4345
     27 C          59.1055   88.3302    7.7391 C.3     1  UNL1        0.1358
     28 N          59.0188   86.8950    7.3116 N.am    1  UNL1       -0.2954
     29 H          58.1973   86.5564    6.8877 H       1  UNL1        0.1502
     30 C          60.1837   85.9757    7.5302 C.2     1  UNL1        0.2296
     31 S          61.1016   86.1924    8.6966 S.2     1  UNL1        0.0058
     32 C          61.8345   84.4700    6.2045 C.3     1  UNL1        0.2545
     33 O          60.4307   84.8398    6.5823 O.3     1  UNL1       -0.4543
@<TRIPOS>BOND
     1    32    33    1
     2    33    30    1
     3    30    31    2
     4    30    28    1
     5    28    27    1
     6    21    27    1
     7    21    22    1
     8    22    23    1
     9    23     1    1
    10     1     2   ar
    11     2     3   ar
    12     3     4   ar
    13     4     8    1
    14     8     9    1
    15     9    10    1
    16    10    11    1
    17    11    12    1
    18    12    13   am
    19    13    14    2
    20    13    18    1
    21    18    19    1
    22    18    20    1
    23    12    15    1
    24    15    16    1
    25     4     5   ar
    26     5     6    1
    27     5     7   ar
    28    23    24   am
    29    24    25    2
    30    24    26    1
    31    26    21    1
    32     7     1   ar
    33    16     8    1
    34    28    29    1
    35    11    17    1
@<TRIPOS>MOLECULE
*****
 33 35 0 0 0
SMALL
GASTEIGER

@<TRIPOS>ATOM
      1 C          64.4440   88.7141   14.3500 C.ar    1  UNL1        0.0594
      2 C          64.8958   87.6775   15.3356 C.ar    1  UNL1        0.0164
      3 C          64.6072   86.2272   15.0839 C.ar    1  UNL1        0.0181
      4 C          63.8670   85.8135   13.8466 C.ar    1  UNL1        0.0758
      5 C          63.4152   86.8501   12.8611 C.ar    1  UNL1        0.1546
      6 F          62.6750   86.4364   11.6238 F       1  UNL1       -0.2028
      7 C          63.7038   88.3004   13.1127 C.ar    1  UNL1        0.0459
      8 N          63.5785   84.3632   13.5950 N.pl3   1  UNL1       -0.3025
      9 C          64.6489   83.6031   12.8693 C.3     1  UNL1        0.1096
     10 C          64.6629   82.1568   12.4716 C.3     1  UNL1        0.1092
     11 N          63.6102   81.1135   12.7015 N.3     1  UNL1       -0.2248
     12 N          62.2832   81.2586   13.3858 N.am    1  UNL1       -0.2182
     13 C          61.4477   80.0149   13.4560 C.2     1  UNL1        0.3060
     14 O          61.9568   78.7348   12.8626 O.2     1  UNL1       -0.2675
     15 C          61.6814   82.4830   14.0092 C.3     1  UNL1        0.1328
     16 C          62.2579   83.8646   14.1023 C.3     1  UNL1        0.1140
     17 H          64.0880   80.3791   13.2238 H       1  UNL1        0.1453
     18 C          60.1029   80.0512   14.1196 C.3     1  UNL1        0.3942
     19 F          59.4583   81.3681   14.4365 F       1  UNL1       -0.1880
     20 F          59.4028   78.7707   14.4663 F       1  UNL1       -0.1880
     21 C          65.6664   92.3973   14.4210 C.3     1  UNL1        0.2101
     22 C          65.6948   91.0187   13.8306 C.3     1  UNL1        0.1468
     23 N          64.7326   90.1644   14.6017 N.am    1  UNL1       -0.2212
     24 C          64.1096   91.0151   15.6686 C.2     1  UNL1        0.4088
     25 O          63.0888   90.5648   16.6711 O.2     1  UNL1       -0.2258
     26 O          64.6868   92.3951   15.5569 O.3     1  UNL1       -0.4345
     27 C          66.4757   93.5720   13.9570 C.3     1  UNL1        0.1358
     28 N          66.1199   94.2694   12.6774 N.am    1  UNL1       -0.2954
     29 H          65.7491   95.1811   12.7004 H       1  UNL1        0.1502
     30 C          66.3291   93.5776   11.3630 C.2     1  UNL1        0.2296
     31 S          65.2220   92.7665   10.7578 S.2     1  UNL1        0.0058
     32 C          67.6809   93.9152    9.1702 C.3     1  UNL1        0.2545
     33 O          67.6454   93.6971   10.6538 O.3     1  UNL1       -0.4543
@<TRIPOS>BOND
     1    32    33    1
     2    33    30    1
     3    30    31    2
     4    30    28    1
     5    28    27    1
     6    21    27    1
     7    21    22    1
     8    22    23    1
     9    23     1    1
    10     1     2   ar
    11     2     3   ar
    12     3     4   ar
    13     4     8    1
    14     8     9    1
    15     9    10    1
    16    10    11    1
    17    11    12    1
    18    12    13   am
    19    13    14    2
    20    13    18    1
    21    18    19    1
    22    18    20    1
    23    12    15    1
    24    15    16    1
    25     4     5   ar
    26     5     6    1
    27     5     7   ar
    28    23    24   am
    29    24    25    2
    30    24    26    1
    31    26    21    1
    32     7     1   ar
    33    16     8    1
    34    28    29    1
    35    11    17    1
@<TRIPOS>MOLECULE
*****
 33 35 0 0 0
SMALL
GASTEIGER

@<TRIPOS>ATOM
      1 C          63.9693   88.9118   12.9900 C.ar    1  UNL1        0.0594
      2 C          64.4759   88.1653   14.1884 C.ar    1  UNL1        0.0164
      3 C          64.1723   86.7047   14.3456 C.ar    1  UNL1        0.0181
      4 C          63.3621   85.9908   13.3046 C.ar    1  UNL1        0.0758
      5 C          62.8555   86.7372   12.1062 C.ar    1  UNL1        0.1546
      6 F          62.0453   86.0232   11.0652 F       1  UNL1       -0.2028
      7 C          63.1590   88.1978   11.9489 C.ar    1  UNL1        0.0459
      8 N          63.0586   84.5302   13.4619 N.pl3   1  UNL1       -0.3025
      9 C          62.6185   84.1008   14.8302 C.3     1  UNL1        0.1096
     10 C          62.2465   82.7272   15.3047 C.3     1  UNL1        0.1092
     11 N          62.2225   81.4442   14.5283 N.3     1  UNL1       -0.2248
     12 N          62.5647   81.2175   13.0855 N.am    1  UNL1       -0.2182
     13 C          62.4397   79.8033   12.6014 C.2     1  UNL1        0.3060
     14 O          61.9961   78.7243   13.5442 O.2     1  UNL1       -0.2675
     15 C          63.0154   82.2180   12.0629 C.3     1  UNL1        0.1328
     16 C          63.2352   83.6924   12.2305 C.3     1  UNL1        0.1140
     17 H          61.2637   81.1083   14.6193 H       1  UNL1        0.1453
     18 C          62.7583   79.4681   11.1744 C.3     1  UNL1        0.3942
     19 F          62.9199   78.0360   10.7585 F       1  UNL1       -0.1880
     20 F          62.9152   80.5651   10.1634 F       1  UNL1       -0.1880
     21 C          65.3499   92.5392   13.0196 C.3     1  UNL1        0.2101
     22 C          65.4381   91.1004   13.4344 C.3     1  UNL1        0.1468
     23 N          64.2728   90.3723   12.8327 N.am    1  UNL1       -0.2212
     24 C          63.4644   91.3611   12.0461 C.2     1  UNL1        0.4088
     25 O          62.2106   91.0630   11.2787 O.2     1  UNL1       -0.2258
     26 O          64.1301   92.7003   12.1617 O.3     1  UNL1       -0.4345
     27 C          66.3124   93.6261   13.3967 C.3     1  UNL1        0.1358
     28 N          66.2333   94.9646   12.7242 N.am    1  UNL1       -0.2954
     29 H          66.0116   95.7671   13.2495 H       1  UNL1        0.1502
     30 C          66.4921   95.0803   11.2512 C.2     1  UNL1        0.2296
     31 S          65.7058   96.0553   10.4259 S.2     1  UNL1        0.0058
     32 C          67.1337   92.9841    9.8570 C.3     1  UNL1        0.2545
     33 O          67.5370   94.2211   10.6035 O.3     1  UNL1       -0.4543
@<TRIPOS>BOND
     1    32    33    1
     2    33    30    1
     3    30    31    2
     4    30    28    1
     5    28    27    1
     6    21    27    1
     7    21    22    1
     8    22    23    1
     9    23     1    1
    10     1     2   ar
    11     2     3   ar
    12     3     4   ar
    13     4     8    1
    14     8     9    1
    15     9    10    1
    16    10    11    1
    17    11    12    1
    18    12    13   am
    19    13    14    2
    20    13    18    1
    21    18    19    1
    22    18    20    1
    23    12    15    1
    24    15    16    1
    25     4     5   ar
    26     5     6    1
    27     5     7   ar
    28    23    24   am
    29    24    25    2
    30    24    26    1
    31    26    21    1
    32     7     1   ar
    33    16     8    1
    34    28    29    1
    35    11    17    1
@<TRIPOS>MOLECULE
*****
 33 35 0 0 0
SMALL
GASTEIGER

@<TRIPOS>ATOM
      1 C          63.9984   88.9837   13.0060 C.ar    1  UNL1        0.0594
      2 C          64.4993   88.2289   14.2016 C.ar    1  UNL1        0.0164
      3 C          64.1798   86.7715   14.3563 C.ar    1  UNL1        0.0181
      4 C          63.3595   86.0689   13.3154 C.ar    1  UNL1        0.0758
      5 C          62.8586   86.8236   12.1198 C.ar    1  UNL1        0.1546
      6 F          62.0383   86.1210   11.0789 F       1  UNL1       -0.2028
      7 C          63.1781   88.2811   11.9651 C.ar    1  UNL1        0.0459
      8 N          63.0400   84.6115   13.4702 N.pl3   1  UNL1       -0.3025
      9 C          62.5653   84.1901   14.8293 C.3     1  UNL1        0.1096
     10 C          62.1708   82.8213   15.2993 C.3     1  UNL1        0.1092
     11 N          62.1536   81.5360   14.5264 N.3     1  UNL1       -0.2248
     12 N          62.5267   81.3018   13.0925 N.am    1  UNL1       -0.2182
     13 C          62.4008   79.8872   12.6099 C.2     1  UNL1        0.3060
     14 O          61.9266   78.8150   13.5456 O.2     1  UNL1       -0.2675
     15 C          63.0091   82.2952   12.0775 C.3     1  UNL1        0.1328
     16 C          63.2375   83.7682   12.2456 C.3     1  UNL1        0.1140
     17 H          61.1902   81.2085   14.5965 H       1  UNL1        0.1453
     18 C          62.7489   79.5448   11.1916 C.3     1  UNL1        0.3942
     19 F          62.8222   78.1091   10.7630 F       1  UNL1       -0.1880
     20 F          63.0238   80.6380   10.2020 F       1  UNL1       -0.1880
     21 C          65.3823   92.6089   13.0916 C.3     1  UNL1        0.2101
     22 C          65.4325   91.1767   13.5344 C.3     1  UNL1        0.1468
     23 N          64.3179   90.4410   12.8513 N.am    1  UNL1       -0.2212
     24 C          63.5790   91.4186   11.9863 C.2     1  UNL1        0.4088
     25 O          62.3908   91.1105   11.1242 O.2     1  UNL1       -0.2258
     26 O          64.2368   92.7585   12.1348 O.3     1  UNL1       -0.4345
     27 C          66.3141   93.7001   13.5288 C.3     1  UNL1        0.1358
     28 N          67.5917   93.3568   14.2360 N.am    1  UNL1       -0.2954
     29 H          68.4491   93.4050   13.7546 H       1  UNL1        0.1502
     30 C          67.5628   92.9402   15.6767 C.2     1  UNL1        0.2296
     31 S          68.7117   92.1707   16.2580 S.2     1  UNL1        0.0058
     32 C          65.2789   92.3004   16.7368 C.3     1  UNL1        0.2545
     33 O          66.3853   93.2932   16.5360 O.3     1  UNL1       -0.4543
@<TRIPOS>BOND
     1    32    33    1
     2    33    30    1
     3    30    31    2
     4    30    28    1
     5    28    27    1
     6    21    27    1
     7    21    22    1
     8    22    23    1
     9    23     1    1
    10     1     2   ar
    11     2     3   ar
    12     3     4   ar
    13     4     8    1
    14     8     9    1
    15     9    10    1
    16    10    11    1
    17    11    12    1
    18    12    13   am
    19    13    14    2
    20    13    18    1
    21    18    19    1
    22    18    20    1
    23    12    15    1
    24    15    16    1
    25     4     5   ar
    26     5     6    1
    27     5     7   ar
    28    23    24   am
    29    24    25    2
    30    24    26    1
    31    26    21    1
    32     7     1   ar
    33    16     8    1
    34    28    29    1
    35    11    17    1
@<TRIPOS>MOLECULE
*****
 33 35 0 0 0
SMALL
GASTEIGER

@<TRIPOS>ATOM
      1 C          63.5147   87.9748   12.8481 C.ar    1  UNL1        0.0594
      2 C          64.1601   87.0877   13.8713 C.ar    1  UNL1        0.0164
      3 C          63.9870   85.6000   13.7901 C.ar    1  UNL1        0.0181
      4 C          63.1686   84.9992   12.6859 C.ar    1  UNL1        0.0758
      5 C          62.5233   85.8861   11.6629 C.ar    1  UNL1        0.1546
      6 F          61.7049   85.2853   10.5587 F       1  UNL1       -0.2028
      7 C          62.6963   87.3740   11.7440 C.ar    1  UNL1        0.0459
      8 N          62.9957   83.5114   12.6049 N.pl3   1  UNL1       -0.3025
      9 C          62.6897   82.8203   13.9007 C.3     1  UNL1        0.1096
     10 C          62.4640   81.3585   14.1504 C.3     1  UNL1        0.1092
     11 N          62.4885   80.2269   13.1662 N.3     1  UNL1       -0.2248
     12 N          62.7448   80.2775   11.6891 N.am    1  UNL1       -0.2182
     13 C          62.7001   78.9590   10.9753 C.2     1  UNL1        0.3060
     14 O          62.4128   77.7012   11.7404 O.2     1  UNL1       -0.2675
     15 C          63.0398   81.4722   10.8314 C.3     1  UNL1        0.1328
     16 C          63.1514   82.9114   11.2391 C.3     1  UNL1        0.1140
     17 H          61.5687   79.7943   13.2513 H       1  UNL1        0.1453
     18 C          62.9427   78.8983    9.4962 C.3     1  UNL1        0.3942
     19 F          64.1563   78.1957    8.9635 F       1  UNL1       -0.1880
     20 F          61.9718   79.5401    8.5500 F       1  UNL1       -0.1880
     21 C          64.1648   91.7667   12.3344 C.3     1  UNL1        0.2101
     22 C          64.1305   90.3608   11.8125 C.3     1  UNL1        0.1468
     23 N          63.6877   89.4625   12.9292 N.am    1  UNL1       -0.2212
     24 C          63.4484   90.3132   14.1413 C.2     1  UNL1        0.4088
     25 O          62.9941   89.8254   15.4850 O.2     1  UNL1       -0.2258
     26 O          63.7433   91.7372   13.7736 O.3     1  UNL1       -0.4345
     27 C          64.5525   92.9876   11.5541 C.3     1  UNL1        0.1358
     28 N          65.6445   92.9070   10.5288 N.am    1  UNL1       -0.2954
     29 H          65.4628   93.1608    9.5951 H       1  UNL1        0.1502
     30 C          67.0134   92.4397   10.9262 C.2     1  UNL1        0.2296
     31 S          68.0400   92.1440    9.8732 S.2     1  UNL1        0.0058
     32 C          68.7195   91.7859   12.7732 C.3     1  UNL1        0.2545
     33 O          67.3556   92.2681   12.3764 O.3     1  UNL1       -0.4543
@<TRIPOS>BOND
     1    32    33    1
     2    33    30    1
     3    30    31    2
     4    30    28    1
     5    28    27    1
     6    21    27    1
     7    21    22    1
     8    22    23    1
     9    23     1    1
    10     1     2   ar
    11     2     3   ar
    12     3     4   ar
    13     4     8    1
    14     8     9    1
    15     9    10    1
    16    10    11    1
    17    11    12    1
    18    12    13   am
    19    13    14    2
    20    13    18    1
    21    18    19    1
    22    18    20    1
    23    12    15    1
    24    15    16    1
    25     4     5   ar
    26     5     6    1
    27     5     7   ar
    28    23    24   am
    29    24    25    2
    30    24    26    1
    31    26    21    1
    32     7     1   ar
    33    16     8    1
    34    28    29    1
    35    11    17    1
@<TRIPOS>MOLECULE
*****
 33 35 0 0 0
SMALL
GASTEIGER

@<TRIPOS>ATOM
      1 C          62.3152   89.1637   11.1353 C.ar    1  UNL1        0.0594
      2 C          62.6046   90.6187   10.9134 C.ar    1  UNL1        0.0164
      3 C          63.5304   91.3491   11.8405 C.ar    1  UNL1        0.0181
      4 C          64.1668   90.6245   12.9894 C.ar    1  UNL1        0.0758
      5 C          63.8773   89.1696   13.2113 C.ar    1  UNL1        0.1546
      6 F          64.5137   88.4450   14.3602 F       1  UNL1       -0.2028
      7 C          62.9515   88.4391   12.2842 C.ar    1  UNL1        0.0459
      8 N          65.0925   91.3550   13.9164 N.pl3   1  UNL1       -0.3025
      9 C          64.5048   91.7630   15.2348 C.3     1  UNL1        0.1096
     10 C          65.1630   92.4977   16.3650 C.3     1  UNL1        0.1092
     11 N          66.5713   93.0057   16.4557 N.3     1  UNL1       -0.2248
     12 N          67.6695   92.9046   15.4389 N.am    1  UNL1       -0.2182
     13 C          68.9799   93.5189   15.8330 C.2     1  UNL1        0.3060
     14 O          69.1262   94.1794   17.1718 O.2     1  UNL1       -0.2675
     15 C          67.6304   92.2705   14.0801 C.3     1  UNL1        0.1328
     16 C          66.4834   91.5809   13.4026 C.3     1  UNL1        0.1140
     17 H          66.9520   92.5561   17.2884 H       1  UNL1        0.1453
     18 C          70.1441   93.4727   14.8882 C.3     1  UNL1        0.3942
     19 F          71.1711   94.5659   14.9095 F       1  UNL1       -0.1880
     20 F          70.2814   92.3333   13.9223 F       1  UNL1       -0.1880
     21 C          59.9335   87.9129    8.3374 C.3     1  UNL1        0.2101
     22 C          60.7946   88.9805    8.9445 C.3     1  UNL1        0.1468
     23 N          61.3894   88.4333   10.2082 N.am    1  UNL1       -0.2212
     24 C          60.8959   87.0276   10.3821 C.2     1  UNL1        0.4088
     25 O          61.2414   86.1054   11.5135 O.2     1  UNL1       -0.2258
     26 O          59.9961   86.7059    9.2258 O.3     1  UNL1       -0.4345
     27 C          59.1477   88.0314    7.0652 C.3     1  UNL1        0.1358
     28 N          58.3523   89.2725    6.7877 N.am    1  UNL1       -0.2954
     29 H          57.4809   89.4069    7.2257 H       1  UNL1        0.1502
     30 C          58.8847   90.3090    5.8431 C.2     1  UNL1        0.2296
     31 S          57.9416   91.2483    5.1514 S.2     1  UNL1        0.0058
     32 C          60.8804   91.3387    4.5368 C.3     1  UNL1        0.2545
     33 O          60.3599   90.4061    5.5901 O.3     1  UNL1       -0.4543
@<TRIPOS>BOND
     1    32    33    1
     2    33    30    1
     3    30    31    2
     4    30    28    1
     5    28    27    1
     6    21    27    1
     7    21    22    1
     8    22    23    1
     9    23     1    1
    10     1     2   ar
    11     2     3   ar
    12     3     4   ar
    13     4     8    1
    14     8     9    1
    15     9    10    1
    16    10    11    1
    17    11    12    1
    18    12    13   am
    19    13    14    2
    20    13    18    1
    21    18    19    1
    22    18    20    1
    23    12    15    1
    24    15    16    1
    25     4     5   ar
    26     5     6    1
    27     5     7   ar
    28    23    24   am
    29    24    25    2
    30    24    26    1
    31    26    21    1
    32     7     1   ar
    33    16     8    1
    34    28    29    1
    35    11    17    1
