@<TRIPOS>MOLECULE
*****
 29 32 0 0 0
SMALL
GASTEIGER

@<TRIPOS>ATOM
      1 C          63.2310   90.3089   13.5376 C.ar    1  UNL1        0.1361
      2 N          62.0661   89.9108   12.6806 N.ar    1  UNL1       -0.2131
      3 C          62.0067   90.3460   11.2464 C.ar    1  UNL1        0.1714
      4 N          63.1122   91.1795   10.6691 N.ar    1  UNL1       -0.2279
      5 C          64.2771   91.5777   11.5261 C.ar    1  UNL1        0.0854
      6 C          65.3826   92.4111   10.9488 C.ar    1  UNL1        0.0192
      7 C          66.5475   92.8093   11.8058 C.ar    1  UNL1        0.0015
      8 C          66.6069   92.3741   13.2400 C.ar    1  UNL1        0.0002
      9 C          65.5014   91.5406   13.8173 C.ar    1  UNL1        0.0043
     10 C          64.3365   91.1424   12.9603 C.ar    1  UNL1        0.0494
     11 C          60.8417   89.9478   10.3894 C.3     1  UNL1        0.1912
     12 O          59.6166   90.8119   10.3405 O.3     1  UNL1       -0.3730
     13 H          59.7414   91.5827   10.9160 H       1  UNL1        0.2113
     14 C          60.9019   88.6855    9.5814 C.ar    1  UNL1        0.0117
     15 C          62.0538   87.7400    9.7519 C.ar    1  UNL1        0.0008
     16 C          62.1140   86.4777    8.9439 C.ar    1  UNL1        0.0294
     17 C          61.0222   86.1609    7.9653 C.ar    1  UNL1        0.1401
     18 F          61.0824   84.8986    7.1573 F       1  UNL1       -0.2042
     19 C          59.8703   87.1064    7.7947 C.ar    1  UNL1        0.0294
     20 C          59.8101   88.3687    8.6028 C.ar    1  UNL1        0.0008
     21 N          63.2904   89.8737   14.9718 N.pl3   1  UNL1       -0.2819
     22 H          63.1723   90.5344   15.6920 H       1  UNL1        0.1551
     23 C          64.9629   84.8711   14.7310 C.3     1  UNL1        0.0515
     24 C          64.2985   86.1323   15.1980 C.ar    1  UNL1        0.0548
     25 C          64.3183   87.4540   14.4889 C.ar    1  UNL1        0.0502
     26 C          63.5298   88.4317   15.3087 C.ar    1  UNL1        0.1539
     27 N          63.0226   87.7144   16.5245 N.ar    1  UNL1       -0.1577
     28 N          63.4977   86.2933   16.4561 N.ar    1  UNL1       -0.2786
     29 H          63.3159   85.5897   17.1203 H       1  UNL1        0.1886
@<TRIPOS>BOND
     1    23    24    1
     2    24    25   ar
     3    25    26   ar
     4    26    21    1
     5    21     1    1
     6     1     2   ar
     7     2     3   ar
     8     3    11    1
     9    11    12    1
    10    11    14    1
    11    14    15   ar
    12    15    16   ar
    13    16    17   ar
    14    17    18    1
    15    17    19   ar
    16    19    20   ar
    17     3     4   ar
    18     4     5   ar
    19     5     6   ar
    20     6     7   ar
    21     7     8   ar
    22     8     9   ar
    23     9    10   ar
    24    26    27   ar
    25    27    28   ar
    26    28    24   ar
    27    10     1   ar
    28    20    14   ar
    29    10     5   ar
    30    21    22    1
    31    12    13    1
    32    28    29    1
@<TRIPOS>MOLECULE
*****
 29 32 0 0 0
SMALL
GASTEIGER

@<TRIPOS>ATOM
      1 C          62.3342   86.5476   10.8340 C.ar    1  UNL1        0.1361
      2 N          62.8291   87.5437   11.8403 N.ar    1  UNL1       -0.2131
      3 C          62.3310   88.9581   11.8032 C.ar    1  UNL1        0.1714
      4 N          61.3379   89.3763   10.7597 N.ar    1  UNL1       -0.2279
      5 C          60.8430   88.3802    9.7533 C.ar    1  UNL1        0.0854
      6 C          59.8499   88.7984    8.7099 C.ar    1  UNL1        0.0192
      7 C          59.3550   87.8023    7.7035 C.ar    1  UNL1        0.0015
      8 C          59.8531   86.3879    7.7407 C.ar    1  UNL1        0.0002
      9 C          60.8462   85.9697    8.7841 C.ar    1  UNL1        0.0043
     10 C          61.3411   86.9658    9.7904 C.ar    1  UNL1        0.0494
     11 C          62.8259   89.9542   12.8096 C.3     1  UNL1        0.1912
     12 O          62.2797   89.9436   14.2066 O.3     1  UNL1       -0.3730
     13 H          61.6213   89.2363   14.2909 H       1  UNL1        0.2113
     14 C          63.8671   90.9609   12.4190 C.ar    1  UNL1        0.0117
     15 C          64.8523   91.4544   13.4368 C.ar    1  UNL1        0.0008
     16 C          65.8934   92.4610   13.0462 C.ar    1  UNL1        0.0294
     17 C          65.9494   92.9743   11.6378 C.ar    1  UNL1        0.1401
     18 F          66.9905   93.9810   11.2472 F       1  UNL1       -0.2042
     19 C          64.9641   92.4808   10.6201 C.ar    1  UNL1        0.0294
     20 C          63.9230   91.4741   11.0107 C.ar    1  UNL1        0.0008
     21 N          62.8324   85.1332   10.8711 N.pl3   1  UNL1       -0.2819
     22 H          63.2838   84.7495   10.0848 H       1  UNL1        0.1551
     23 C          62.1826   81.0018   14.0945 C.3     1  UNL1        0.0515
     24 C          62.3441   82.4044   13.5878 C.ar    1  UNL1        0.0548
     25 C          62.5202   82.8092   12.1542 C.ar    1  UNL1        0.0502
     26 C          62.6427   84.3034   12.1062 C.ar    1  UNL1        0.1539
     27 N          62.5424   84.8221   13.5101 N.ar    1  UNL1       -0.1577
     28 N          62.3578   83.6485   14.4258 N.ar    1  UNL1       -0.2786
     29 H          62.2624   83.6878   15.4049 H       1  UNL1        0.1886
@<TRIPOS>BOND
     1    23    24    1
     2    24    25   ar
     3    25    26   ar
     4    26    21    1
     5    21     1    1
     6     1     2   ar
     7     2     3   ar
     8     3    11    1
     9    11    12    1
    10    11    14    1
    11    14    15   ar
    12    15    16   ar
    13    16    17   ar
    14    17    18    1
    15    17    19   ar
    16    19    20   ar
    17     3     4   ar
    18     4     5   ar
    19     5     6   ar
    20     6     7   ar
    21     7     8   ar
    22     8     9   ar
    23     9    10   ar
    24    26    27   ar
    25    27    28   ar
    26    28    24   ar
    27    10     1   ar
    28    20    14   ar
    29    10     5   ar
    30    21    22    1
    31    12    13    1
    32    28    29    1
@<TRIPOS>MOLECULE
*****
 29 32 0 0 0
SMALL
GASTEIGER

@<TRIPOS>ATOM
      1 C          61.5993   88.7105   10.9533 C.ar    1  UNL1        0.1361
      2 N          62.3161   87.7777   11.8840 N.ar    1  UNL1       -0.2131
      3 C          62.3001   86.3004   11.6243 C.ar    1  UNL1        0.1714
      4 N          61.5675   85.7559   10.4341 N.ar    1  UNL1       -0.2279
      5 C          60.8507   86.6888    9.5034 C.ar    1  UNL1        0.0854
      6 C          60.1181   86.1443    8.3131 C.ar    1  UNL1        0.0192
      7 C          59.4014   87.0771    7.3825 C.ar    1  UNL1        0.0015
      8 C          59.4173   88.5544    7.6421 C.ar    1  UNL1        0.0002
      9 C          60.1499   89.0988    8.8323 C.ar    1  UNL1        0.0043
     10 C          60.8666   88.1660    9.7630 C.ar    1  UNL1        0.0494
     11 C          63.0169   85.3676   12.5550 C.3     1  UNL1        0.1912
     12 O          63.7959   85.9161   13.7136 O.3     1  UNL1       -0.3730
     13 H          63.7334   86.8841   13.7160 H       1  UNL1        0.2113
     14 C          62.9547   83.8863   12.3271 C.ar    1  UNL1        0.0117
     15 C          62.3561   82.9913   13.3715 C.ar    1  UNL1        0.0008
     16 C          62.2939   81.5100   13.1436 C.ar    1  UNL1        0.0294
     17 C          62.8303   80.9238   11.8713 C.ar    1  UNL1        0.1401
     18 F          62.7681   79.4425   11.6434 F       1  UNL1       -0.2042
     19 C          63.4288   81.8188   10.8269 C.ar    1  UNL1        0.0294
     20 C          63.4910   83.3001   11.0549 C.ar    1  UNL1        0.0008
     21 N          61.6152   90.1878   11.2129 N.pl3   1  UNL1       -0.2819
     22 H          60.7717   90.6953   11.2208 H       1  UNL1        0.1551
     23 C          66.0421   92.9676   10.4677 C.3     1  UNL1        0.0515
     24 C          64.9512   92.1695   11.1181 C.ar    1  UNL1        0.0548
     25 C          63.7338   91.6201   10.4353 C.ar    1  UNL1        0.0502
     26 C          62.9164   90.8918   11.4606 C.ar    1  UNL1        0.1539
     27 N          63.6285   90.9910   12.7771 N.ar    1  UNL1       -0.1577
     28 N          64.8861   91.7807   12.5654 N.ar    1  UNL1       -0.2786
     29 H          65.5519   92.0045   13.2552 H       1  UNL1        0.1886
@<TRIPOS>BOND
     1    23    24    1
     2    24    25   ar
     3    25    26   ar
     4    26    21    1
     5    21     1    1
     6     1     2   ar
     7     2     3   ar
     8     3    11    1
     9    11    12    1
    10    11    14    1
    11    14    15   ar
    12    15    16   ar
    13    16    17   ar
    14    17    18    1
    15    17    19   ar
    16    19    20   ar
    17     3     4   ar
    18     4     5   ar
    19     5     6   ar
    20     6     7   ar
    21     7     8   ar
    22     8     9   ar
    23     9    10   ar
    24    26    27   ar
    25    27    28   ar
    26    28    24   ar
    27    10     1   ar
    28    20    14   ar
    29    10     5   ar
    30    21    22    1
    31    12    13    1
    32    28    29    1
@<TRIPOS>MOLECULE
*****
 29 32 0 0 0
SMALL
GASTEIGER

@<TRIPOS>ATOM
      1 C          63.0537   88.9492   12.1035 C.ar    1  UNL1        0.1361
      2 N          63.6324   87.9150   13.0230 N.ar    1  UNL1       -0.2131
      3 C          63.2426   86.4744   12.8716 C.ar    1  UNL1        0.1714
      4 N          62.2739   86.0681   11.8009 N.ar    1  UNL1       -0.2279
      5 C          61.6951   87.1023   10.8814 C.ar    1  UNL1        0.0854
      6 C          60.7264   86.6960    9.8106 C.ar    1  UNL1        0.0192
      7 C          60.1477   87.7302    8.8912 C.ar    1  UNL1        0.0015
      8 C          60.5376   89.1707    9.0425 C.ar    1  UNL1        0.0002
      9 C          61.5062   89.5771   10.1132 C.ar    1  UNL1        0.0043
     10 C          62.0850   88.5429   11.0327 C.ar    1  UNL1        0.0494
     11 C          63.8214   85.4402   13.7912 C.3     1  UNL1        0.1912
     12 O          64.7681   85.8504   14.8800 O.3     1  UNL1       -0.3730
     13 H          64.8979   86.8112   14.8506 H       1  UNL1        0.2113
     14 C          63.4535   83.9960   13.6218 C.ar    1  UNL1        0.0117
     15 C          64.1171   83.1728   12.5579 C.ar    1  UNL1        0.0008
     16 C          63.7493   81.7285   12.3885 C.ar    1  UNL1        0.0294
     17 C          62.7177   81.1074   13.2831 C.ar    1  UNL1        0.1401
     18 F          62.3499   79.6631   13.1138 F       1  UNL1       -0.2042
     19 C          62.0541   81.9306   14.3471 C.ar    1  UNL1        0.0294
     20 C          62.4221   83.3749   14.5164 C.ar    1  UNL1        0.0008
     21 N          63.4435   90.3897   12.2548 N.pl3   1  UNL1       -0.2819
     22 H          63.3084   91.0172   11.5084 H       1  UNL1        0.1551
     23 C          66.8105   92.4138   15.7828 C.3     1  UNL1        0.0515
     24 C          65.5870   91.8044   15.1650 C.ar    1  UNL1        0.0548
     25 C          65.4101   91.4581   13.7163 C.ar    1  UNL1        0.0502
     26 C          64.0394   90.8740   13.5434 C.ar    1  UNL1        0.1539
     27 N          63.3691   90.8594   14.8852 N.ar    1  UNL1       -0.1577
     28 N          64.3255   91.4344   15.8875 N.ar    1  UNL1       -0.2786
     29 H          64.1553   91.5488   16.8504 H       1  UNL1        0.1886
@<TRIPOS>BOND
     1    23    24    1
     2    24    25   ar
     3    25    26   ar
     4    26    21    1
     5    21     1    1
     6     1     2   ar
     7     2     3   ar
     8     3    11    1
     9    11    12    1
    10    11    14    1
    11    14    15   ar
    12    15    16   ar
    13    16    17   ar
    14    17    18    1
    15    17    19   ar
    16    19    20   ar
    17     3     4   ar
    18     4     5   ar
    19     5     6   ar
    20     6     7   ar
    21     7     8   ar
    22     8     9   ar
    23     9    10   ar
    24    26    27   ar
    25    27    28   ar
    26    28    24   ar
    27    10     1   ar
    28    20    14   ar
    29    10     5   ar
    30    21    22    1
    31    12    13    1
    32    28    29    1
@<TRIPOS>MOLECULE
*****
 29 32 0 0 0
SMALL
GASTEIGER

@<TRIPOS>ATOM
      1 C          63.7482   89.4187   13.6783 C.ar    1  UNL1        0.1361
      2 N          64.1195   88.1599   14.4046 N.ar    1  UNL1       -0.2131
      3 C          63.8123   86.8241   13.7955 C.ar    1  UNL1        0.1714
      4 N          63.1338   86.7470   12.4600 N.ar    1  UNL1       -0.2279
      5 C          62.7625   88.0058   11.7335 C.ar    1  UNL1        0.0854
      6 C          62.0840   87.9287   10.3980 C.ar    1  UNL1        0.0192
      7 C          61.7128   89.1874    9.6716 C.ar    1  UNL1        0.0015
      8 C          62.0200   90.5233   10.2808 C.ar    1  UNL1        0.0002
      9 C          62.6985   90.6004   11.6163 C.ar    1  UNL1        0.0043
     10 C          63.0697   89.3416   12.3427 C.ar    1  UNL1        0.0494
     11 C          64.1835   85.5653   14.5219 C.3     1  UNL1        0.1912
     12 O          64.9923   85.6379   15.7831 O.3     1  UNL1       -0.3730
     13 H          65.1899   86.5653   15.9875 H       1  UNL1        0.2113
     14 C          63.7461   84.2339   13.9871 C.ar    1  UNL1        0.0117
     15 C          64.4489   83.6322   12.8064 C.ar    1  UNL1        0.0008
     16 C          64.0114   82.3008   12.2717 C.ar    1  UNL1        0.0294
     17 C          62.8711   81.5711   12.9176 C.ar    1  UNL1        0.1401
     18 F          62.4336   80.2397   12.3828 F       1  UNL1       -0.2042
     19 C          62.1683   82.1727   14.0983 C.ar    1  UNL1        0.0294
     20 C          62.6058   83.5042   14.6331 C.ar    1  UNL1        0.0008
     21 N          64.0555   90.7545   14.2875 N.pl3   1  UNL1       -0.2819
     22 H          63.3835   91.2065   14.8474 H       1  UNL1        0.1551
     23 C          68.9346   92.6351   15.0206 C.3     1  UNL1        0.0515
     24 C          67.6291   92.2662   14.3806 C.ar    1  UNL1        0.0548
     25 C          66.4835   91.5692   15.0527 C.ar    1  UNL1        0.0502
     26 C          65.3864   91.4018   14.0436 C.ar    1  UNL1        0.1539
     27 N          65.8540   91.9953   12.7477 N.ar    1  UNL1       -0.1577
     28 N          67.2401   92.5295   12.9560 N.ar    1  UNL1       -0.2786
     29 H          67.7967   92.9748   12.2769 H       1  UNL1        0.1886
@<TRIPOS>BOND
     1    23    24    1
     2    24    25   ar
     3    25    26   ar
     4    26    21    1
     5    21     1    1
     6     1     2   ar
     7     2     3   ar
     8     3    11    1
     9    11    12    1
    10    11    14    1
    11    14    15   ar
    12    15    16   ar
    13    16    17   ar
    14    17    18    1
    15    17    19   ar
    16    19    20   ar
    17     3     4   ar
    18     4     5   ar
    19     5     6   ar
    20     6     7   ar
    21     7     8   ar
    22     8     9   ar
    23     9    10   ar
    24    26    27   ar
    25    27    28   ar
    26    28    24   ar
    27    10     1   ar
    28    20    14   ar
    29    10     5   ar
    30    21    22    1
    31    12    13    1
    32    28    29    1
@<TRIPOS>MOLECULE
*****
 29 32 0 0 0
SMALL
GASTEIGER

@<TRIPOS>ATOM
      1 C          62.3361   87.7408   11.5645 C.ar    1  UNL1        0.1361
      2 N          62.4067   86.3140   12.0218 N.ar    1  UNL1       -0.2131
      3 C          63.2424   85.9485   13.2126 C.ar    1  UNL1        0.1714
      4 N          64.0076   87.0098   13.9461 N.ar    1  UNL1       -0.2279
      5 C          63.9371   88.4367   13.4888 C.ar    1  UNL1        0.0854
      6 C          64.7023   89.4980   14.2223 C.ar    1  UNL1        0.0192
      7 C          64.6318   90.9248   13.7650 C.ar    1  UNL1        0.0015
      8 C          63.7960   91.2903   12.5742 C.ar    1  UNL1        0.0002
      9 C          63.0308   90.2290   11.8408 C.ar    1  UNL1        0.0043
     10 C          63.1014   88.8022   12.2980 C.ar    1  UNL1        0.0494
     11 C          63.3129   84.5215   13.6698 C.3     1  UNL1        0.1912
     12 O          63.4084   84.2068   15.1334 O.3     1  UNL1       -0.3730
     13 H          63.4129   85.0327   15.6421 H       1  UNL1        0.2113
     14 C          63.2880   83.4094   12.6636 C.ar    1  UNL1        0.0117
     15 C          62.5814   82.1253   12.9824 C.ar    1  UNL1        0.0008
     16 C          62.5565   81.0131   11.9762 C.ar    1  UNL1        0.0294
     17 C          63.2382   81.1852   10.6511 C.ar    1  UNL1        0.1401
     18 F          63.2133   80.0730    9.6449 F       1  UNL1       -0.2042
     19 C          63.9448   82.4693   10.3323 C.ar    1  UNL1        0.0294
     20 C          63.9697   83.5815   11.3386 C.ar    1  UNL1        0.0008
     21 N          61.5004   88.1063   10.3738 N.pl3   1  UNL1       -0.2819
     22 H          61.1025   89.0045   10.3087 H       1  UNL1        0.1551
     23 C          62.3376   84.4674    6.6404 C.3     1  UNL1        0.0515
     24 C          61.6557   85.4309    7.5662 C.ar    1  UNL1        0.0548
     25 C          62.3300   86.3047    8.5819 C.ar    1  UNL1        0.0502
     26 C          61.2709   87.1035    9.2822 C.ar    1  UNL1        0.1539
     27 N          59.9422   86.7233    8.6992 N.ar    1  UNL1       -0.1577
     28 N          60.1799   85.6896    7.6387 N.ar    1  UNL1       -0.2786
     29 H          59.4888   85.2568    7.0870 H       1  UNL1        0.1886
@<TRIPOS>BOND
     1    23    24    1
     2    24    25   ar
     3    25    26   ar
     4    26    21    1
     5    21     1    1
     6     1     2   ar
     7     2     3   ar
     8     3    11    1
     9    11    12    1
    10    11    14    1
    11    14    15   ar
    12    15    16   ar
    13    16    17   ar
    14    17    18    1
    15    17    19   ar
    16    19    20   ar
    17     3     4   ar
    18     4     5   ar
    19     5     6   ar
    20     6     7   ar
    21     7     8   ar
    22     8     9   ar
    23     9    10   ar
    24    26    27   ar
    25    27    28   ar
    26    28    24   ar
    27    10     1   ar
    28    20    14   ar
    29    10     5   ar
    30    21    22    1
    31    12    13    1
    32    28    29    1
@<TRIPOS>MOLECULE
*****
 29 32 0 0 0
SMALL
GASTEIGER

@<TRIPOS>ATOM
      1 C          63.2728   87.0589   13.0926 C.ar    1  UNL1        0.1361
      2 N          62.2953   86.6897   12.0164 N.ar    1  UNL1       -0.2131
      3 C          61.7511   87.7473   11.1025 C.ar    1  UNL1        0.1714
      4 N          62.1844   89.1741   11.2647 N.ar    1  UNL1       -0.2279
      5 C          63.1619   89.5434   12.3409 C.ar    1  UNL1        0.0854
      6 C          63.5952   90.9703   12.5032 C.ar    1  UNL1        0.0192
      7 C          64.5727   91.3395   13.5793 C.ar    1  UNL1        0.0015
      8 C          65.1169   90.2819   14.4932 C.ar    1  UNL1        0.0002
      9 C          64.6836   88.8550   14.3310 C.ar    1  UNL1        0.0043
     10 C          63.7061   88.4858   13.2549 C.ar    1  UNL1        0.0494
     11 C          60.7736   87.3780   10.0263 C.3     1  UNL1        0.1912
     12 O          59.3682   87.8997   10.0785 O.3     1  UNL1       -0.3730
     13 H          59.2587   88.4558   10.8657 H       1  UNL1        0.2113
     14 C          61.2015   86.4871    8.8980 C.ar    1  UNL1        0.0117
     15 C          62.6098   85.9742    8.8400 C.ar    1  UNL1        0.0008
     16 C          63.0377   85.0833    7.7117 C.ar    1  UNL1        0.0294
     17 C          62.0572   84.7052    6.6413 C.ar    1  UNL1        0.1401
     18 F          62.4850   83.8143    5.5130 F       1  UNL1       -0.2042
     19 C          60.6488   85.2181    6.6993 C.ar    1  UNL1        0.0294
     20 C          60.2209   86.1091    7.8277 C.ar    1  UNL1        0.0008
     21 N          63.8171   86.0013   14.0065 N.pl3   1  UNL1       -0.2819
     22 H          64.3483   86.2576   14.7947 H       1  UNL1        0.1551
     23 C          61.7032   81.1641   14.1223 C.3     1  UNL1        0.0515
     24 C          62.5802   82.3297   13.7727 C.ar    1  UNL1        0.0548
     25 C          62.4842   83.7102   14.3515 C.ar    1  UNL1        0.0502
     26 C          63.5519   84.5531   13.7195 C.ar    1  UNL1        0.1539
     27 N          64.3078   83.6936   12.7501 N.ar    1  UNL1       -0.1577
     28 N          63.7073   82.3194   12.7829 N.ar    1  UNL1       -0.2786
     29 H          64.0013   81.5465   12.2487 H       1  UNL1        0.1886
@<TRIPOS>BOND
     1    23    24    1
     2    24    25   ar
     3    25    26   ar
     4    26    21    1
     5    21     1    1
     6     1     2   ar
     7     2     3   ar
     8     3    11    1
     9    11    12    1
    10    11    14    1
    11    14    15   ar
    12    15    16   ar
    13    16    17   ar
    14    17    18    1
    15    17    19   ar
    16    19    20   ar
    17     3     4   ar
    18     4     5   ar
    19     5     6   ar
    20     6     7   ar
    21     7     8   ar
    22     8     9   ar
    23     9    10   ar
    24    26    27   ar
    25    27    28   ar
    26    28    24   ar
    27    10     1   ar
    28    20    14   ar
    29    10     5   ar
    30    21    22    1
    31    12    13    1
    32    28    29    1
@<TRIPOS>MOLECULE
*****
 29 32 0 0 0
SMALL
GASTEIGER

@<TRIPOS>ATOM
      1 C          63.5430   85.1106   13.5590 C.ar    1  UNL1        0.1361
      2 N          63.1525   86.1104   12.5112 N.ar    1  UNL1       -0.2131
      3 C          62.5772   85.6439   11.2069 C.ar    1  UNL1        0.1714
      4 N          62.3922   84.1776   10.9503 N.ar    1  UNL1       -0.2279
      5 C          62.7827   83.1778   11.9982 C.ar    1  UNL1        0.0854
      6 C          62.5978   81.7115   11.7416 C.ar    1  UNL1        0.0192
      7 C          62.9883   80.7117   12.7894 C.ar    1  UNL1        0.0015
      8 C          63.5636   81.1782   14.0938 C.ar    1  UNL1        0.0002
      9 C          63.7486   82.6445   14.3503 C.ar    1  UNL1        0.0043
     10 C          63.3581   83.6442   13.3025 C.ar    1  UNL1        0.0494
     11 C          62.1867   86.6438   10.1591 C.3     1  UNL1        0.1912
     12 O          62.5792   86.4228    8.7283 O.3     1  UNL1       -0.3730
     13 H          63.0769   85.5935    8.6539 H       1  UNL1        0.2113
     14 C          61.4037   87.8645   10.5420 C.ar    1  UNL1        0.0117
     15 C          61.9224   89.2281   10.1934 C.ar    1  UNL1        0.0008
     16 C          61.1394   90.4488   10.5763 C.ar    1  UNL1        0.0294
     17 C          59.8377   90.3060   11.3080 C.ar    1  UNL1        0.1401
     18 F          59.0547   91.5267   11.6909 F       1  UNL1       -0.2042
     19 C          59.3190   88.9424   11.6566 C.ar    1  UNL1        0.0294
     20 C          60.1021   87.7216   11.2736 C.ar    1  UNL1        0.0008
     21 N          64.1184   85.5771   14.8634 N.pl3   1  UNL1       -0.2819
     22 H          64.6723   84.9678   15.4030 H       1  UNL1        0.1551
     23 C          64.0856   90.8443   15.2310 C.3     1  UNL1        0.0515
     24 C          63.8347   89.3929   15.5145 C.ar    1  UNL1        0.0548
     25 C          64.3363   88.2362   14.7018 C.ar    1  UNL1        0.0502
     26 C          63.8498   86.9718   15.3456 C.ar    1  UNL1        0.1539
     27 N          63.0475   87.3470   16.5562 N.ar    1  UNL1       -0.1577
     28 N          63.0382   88.8433   16.6607 N.ar    1  UNL1       -0.2786
     29 H          62.5883   89.3719   17.3588 H       1  UNL1        0.1886
@<TRIPOS>BOND
     1    23    24    1
     2    24    25   ar
     3    25    26   ar
     4    26    21    1
     5    21     1    1
     6     1     2   ar
     7     2     3   ar
     8     3    11    1
     9    11    12    1
    10    11    14    1
    11    14    15   ar
    12    15    16   ar
    13    16    17   ar
    14    17    18    1
    15    17    19   ar
    16    19    20   ar
    17     3     4   ar
    18     4     5   ar
    19     5     6   ar
    20     6     7   ar
    21     7     8   ar
    22     8     9   ar
    23     9    10   ar
    24    26    27   ar
    25    27    28   ar
    26    28    24   ar
    27    10     1   ar
    28    20    14   ar
    29    10     5   ar
    30    21    22    1
    31    12    13    1
    32    28    29    1
@<TRIPOS>MOLECULE
*****
 29 32 0 0 0
SMALL
GASTEIGER

@<TRIPOS>ATOM
      1 C          61.4642   88.4565   10.8612 C.ar    1  UNL1        0.1361
      2 N          62.2054   87.4636   11.7066 N.ar    1  UNL1       -0.2131
      3 C          62.2620   86.0223   11.2950 C.ar    1  UNL1        0.1714
      4 N          61.5773   85.5739   10.0380 N.ar    1  UNL1       -0.2279
      5 C          60.8361   86.5668    9.1925 C.ar    1  UNL1        0.0854
      6 C          60.1514   86.1184    7.9355 C.ar    1  UNL1        0.0192
      7 C          59.4102   87.1113    7.0901 C.ar    1  UNL1        0.0015
      8 C          59.3537   88.5526    7.5017 C.ar    1  UNL1        0.0002
      9 C          60.0383   89.0010    8.7587 C.ar    1  UNL1        0.0043
     10 C          60.7795   88.0081    9.6041 C.ar    1  UNL1        0.0494
     11 C          63.0032   85.0294   12.1405 C.3     1  UNL1        0.1912
     12 O          63.6082   83.8105   11.5093 O.3     1  UNL1       -0.3730
     13 H          63.4297   83.8178   10.5559 H       1  UNL1        0.2113
     14 C          63.1395   85.2554   13.6171 C.ar    1  UNL1        0.0117
     15 C          62.3128   84.4535   14.5780 C.ar    1  UNL1        0.0008
     16 C          62.4491   84.6795   16.0546 C.ar    1  UNL1        0.0294
     17 C          63.4121   85.7075   16.5703 C.ar    1  UNL1        0.1401
     18 F          63.5484   85.9335   18.0468 F       1  UNL1       -0.2042
     19 C          64.2388   86.5094   15.6093 C.ar    1  UNL1        0.0294
     20 C          64.1025   86.2834   14.1327 C.ar    1  UNL1        0.0008
     21 N          61.4077   89.8978   11.2728 N.pl3   1  UNL1       -0.2819
     22 H          60.5587   90.2884   11.5826 H       1  UNL1        0.1551
     23 C          65.8416   92.4154   12.6449 C.3     1  UNL1        0.0515
     24 C          64.6827   91.9013   11.8432 C.ar    1  UNL1        0.0548
     25 C          63.5894   91.0068   12.3476 C.ar    1  UNL1        0.0502
     26 C          62.6446   90.7441   11.2126 C.ar    1  UNL1        0.1539
     27 N          63.1540   91.4764   10.0066 N.ar    1  UNL1       -0.1577
     28 N          64.4136   92.1916   10.3963 N.ar    1  UNL1       -0.2786
     29 H          64.9666   92.7529    9.8062 H       1  UNL1        0.1886
@<TRIPOS>BOND
     1    23    24    1
     2    24    25   ar
     3    25    26   ar
     4    26    21    1
     5    21     1    1
     6     1     2   ar
     7     2     3   ar
     8     3    11    1
     9    11    12    1
    10    11    14    1
    11    14    15   ar
    12    15    16   ar
    13    16    17   ar
    14    17    18    1
    15    17    19   ar
    16    19    20   ar
    17     3     4   ar
    18     4     5   ar
    19     5     6   ar
    20     6     7   ar
    21     7     8   ar
    22     8     9   ar
    23     9    10   ar
    24    26    27   ar
    25    27    28   ar
    26    28    24   ar
    27    10     1   ar
    28    20    14   ar
    29    10     5   ar
    30    21    22    1
    31    12    13    1
    32    28    29    1
