@<TRIPOS>MOLECULE
*****
 46 51 0 0 0
SMALL
GASTEIGER

@<TRIPOS>ATOM
      1 N          60.5654   92.6487    1.9216 N.am    1  UNL1       -0.1907
      2 C          59.4019   92.9541    1.0254 C.2     1  UNL1        0.3219
      3 O          57.9623   92.6475    1.3141 O.2     1  UNL1       -0.2512
      4 N          59.9309   93.6198   -0.2103 N.am    1  UNL1       -0.2223
      5 C          61.4213   93.7260   -0.0779 C.3     1  UNL1        0.1391
      6 C          62.8960   93.7619    0.1942 C.3     1  UNL1        0.0449
      7 C          63.8302   94.3627   -0.8139 C.3     1  UNL1        0.0746
      8 N          63.2897   94.9275   -2.0941 N.3     1  UNL1       -0.2676
      9 C          61.8151   94.8915   -2.3662 C.3     1  UNL1        0.0746
     10 C          60.8809   94.2908   -1.3581 C.3     1  UNL1        0.0449
     11 C          61.8135   93.1258    1.2398 C.2     1  UNL1        0.2529
     12 O          63.2086   93.0211    1.7806 O.2     1  UNL1       -0.2724
     13 C          60.3496   90.6523    5.9487 C.ar    1  UNL1       -0.0002
     14 C          59.1472   91.3590    5.3965 C.ar    1  UNL1        0.0013
     15 C          59.2191   92.0245    4.0542 C.ar    1  UNL1        0.0154
     16 C          60.4934   91.9833    3.2640 C.ar    1  UNL1        0.0622
     17 C          61.6957   91.2765    3.8161 C.ar    1  UNL1        0.0154
     18 C          61.6238   90.6110    5.1584 C.ar    1  UNL1        0.0013
     19 C          58.7885   88.1121    6.2818 C.3     1  UNL1        0.0310
     20 C          59.4971   88.7167    7.4576 C.ar    1  UNL1       -0.0218
     21 C          59.4251   88.0512    8.8000 C.ar    1  UNL1       -0.0031
     22 C          60.1337   88.6557    9.9758 C.ar    1  UNL1        0.0137
     23 C          60.9142   89.9259    9.8092 C.ar    1  UNL1        0.0011
     24 C          60.9862   90.5914    8.4668 C.ar    1  UNL1       -0.0003
     25 C          60.2776   89.9868    7.2910 C.ar    1  UNL1       -0.0040
     26 C          60.0617   87.9902   11.3181 C.2     1  UNL1        0.0729
     27 O          59.1416   88.5282   12.3735 O.co2   1  UNL1       -0.5446
     28 O          60.9100   86.7868   11.6051 O.co2   1  UNL1       -0.5446
     29 C          59.1132   94.0958   -1.3742 C.ar    1  UNL1        0.1421
     30 C          58.7395   93.1408   -2.4689 C.ar    1  UNL1        0.0579
     31 C          57.9217   93.6169   -3.6328 C.ar    1  UNL1        0.1571
     32 N          57.4776   95.0481   -3.7020 N.ar    1  UNL1       -0.2199
     33 C          57.8513   96.0030   -2.6073 C.ar    1  UNL1        0.2000
     34 N          58.6690   95.5269   -1.4435 N.ar    1  UNL1       -0.2086
     35 C          57.5481   92.6620   -4.7275 C.3     1  UNL1        0.4350
     36 F          57.1744   91.7069   -5.8222 F       1  UNL1       -0.1644
     37 F          57.0865   93.8118   -5.5731 F       1  UNL1       -0.1644
     38 F          58.0096   91.5122   -3.8819 F       1  UNL1       -0.1644
     39 C          64.2240   95.5283   -3.1022 C.3     1  UNL1        0.1183
     40 C          64.6932   94.7120   -4.2698 C.ar    1  UNL1        0.0712
     41 N          64.4323   93.2353   -4.3057 N.ar    1  UNL1       -0.2471
     42 C          64.9016   92.4189   -5.4734 C.ar    1  UNL1        0.0985
     43 C          65.6318   93.0793   -6.6051 C.ar    1  UNL1        0.0203
     44 C          65.8927   94.5560   -6.5691 C.ar    1  UNL1       -0.0015
     45 C          65.4235   95.3723   -5.4016 C.ar    1  UNL1       -0.0069
     46 C          65.6844   96.8490   -5.3656 C.3     1  UNL1        0.0323
@<TRIPOS>UNITY_ATOM_ATTR
27 1
charge -1
@<TRIPOS>BOND
     1    19    20    1
     2    20    21   ar
     3    21    22   ar
     4    22    26    1
     5    26    27   ar
     6    26    28   ar
     7    22    23   ar
     8    23    24   ar
     9    24    25   ar
    10    25    13    1
    11    13    14   ar
    12    14    15   ar
    13    15    16   ar
    14    16     1    1
    15     1     2   am
    16     2     3    2
    17     2     4   am
    18     4    29    1
    19    29    30   ar
    20    30    31   ar
    21    31    35    1
    22    35    36    1
    23    35    37    1
    24    35    38    1
    25    31    32   ar
    26    32    33   ar
    27    33    34   ar
    28     4     5    1
    29     5     6    1
    30     6     7    1
    31     7     8    1
    32     8    39    1
    33    39    40    1
    34    40    41   ar
    35    41    42   ar
    36    42    43   ar
    37    43    44   ar
    38    44    45   ar
    39    45    46    1
    40     8     9    1
    41     9    10    1
    42     5    11    1
    43    11    12    2
    44    16    17   ar
    45    17    18   ar
    46    25    20   ar
    47    18    13   ar
    48    11     1   am
    49    34    29   ar
    50    10     5    1
    51    45    40   ar
