@<TRIPOS>MOLECULE
*****
 60 63 0 0 0
SMALL
GASTEIGER

@<TRIPOS>ATOM
      1 C          65.9363   95.7608    6.7285 C.3     1  UNL1        0.1953
      2 O          65.9688   95.3630    8.1744 O.3     1  UNL1       -0.4497
      3 C          65.5700   94.5787    9.3892 C.2     1  UNL1        0.3188
      4 O          66.4417   95.1823   10.4503 O.2     1  UNL1       -0.2500
      5 C          64.8086   93.5434   10.1628 C.3     1  UNL1        0.1263
      6 C          65.4886   93.9331   11.2621 C.3     1  UNL1        0.0142
      7 C          63.8164   92.4361   10.3614 C.3     1  UNL1        0.1306
      8 C          62.7649   91.4483    9.9507 C.3     1  UNL1        0.0575
      9 C          62.4702   90.7501   11.2453 C.3     1  UNL1        0.0051
     10 C          61.8360   90.7508    9.0017 C.3     1  UNL1        0.1445
     11 C          61.1902   90.4641    7.6785 C.3     1  UNL1        0.1134
     12 C          60.1468   89.5139    7.1704 C.3     1  UNL1        0.0318
     13 O          60.6594   89.5783    8.7665 O.3     1  UNL1       -0.3844
     14 C          60.9393   90.6380    6.2099 C.3     1  UNL1        0.0307
     15 C          61.1266   91.2422    4.8499 C.3     1  UNL1        0.0184
     16 C          60.1506   90.4584    4.0233 C.3     1  UNL1        0.0015
     17 C          61.7197   92.1724    3.8335 C.3     1  UNL1        0.0722
     18 N          62.6160   93.2676    3.3365 N.3     1  UNL1       -0.2705
     19 C          62.2594   93.3260    1.8807 C.3     1  UNL1        0.0897
     20 C          63.6607   94.3386    3.4450 C.3     1  UNL1        0.0870
     21 C          63.7385   94.8423    2.0342 C.3     1  UNL1        0.0200
     22 C          64.6731   95.2001    4.1400 C.3     1  UNL1        0.1528
     23 O          65.1718   96.0621    3.0182 O.3     1  UNL1       -0.3806
     24 C          65.4779   95.7031    5.3015 C.3     1  UNL1        0.1506
     25 C          66.5300   96.7514    5.5119 C.3     1  UNL1        0.0356
     26 O          65.8078   96.4309    4.0320 O.3     1  UNL1       -0.3808
     27 H          61.1003   89.7941    9.6031 H       1  UNL1        0.2103
     28 H          64.7129   95.8226    2.1978 H       1  UNL1        0.2105
     29 H          65.2684   96.0777    3.3073 H       1  UNL1        0.2105
     30 C          68.1020   96.8559    7.6560 C.3     1  UNL1        0.0039
     31 C          66.9604   96.8559    6.6832 C.3     1  UNL1        0.0462
     32 O          63.9589   92.1487   11.8267 O.3     1  UNL1       -0.3323
     33 C          65.3178   92.1468   12.4619 C.3     1  UNL1        0.2375
     34 C          66.5220   91.7597   11.6557 C.3     1  UNL1        0.0910
     35 C          67.8809   91.7578   12.2908 C.3     1  UNL1        0.1246
     36 C          69.3650   91.6035   12.4439 C.3     1  UNL1        0.0324
     37 C          68.0356   92.1430   13.7322 C.3     1  UNL1        0.1623
     38 O          69.3944   92.1411   14.3674 O.3     1  UNL1       -0.3796
     39 C          66.8314   92.5301   14.5385 C.3     1  UNL1        0.1468
     40 C          66.9860   92.9153   15.9799 C.3     1  UNL1        0.0348
     41 O          65.4725   92.5320   13.9033 O.3     1  UNL1       -0.3304
     42 H          69.3178   92.4125   15.2955 H       1  UNL1        0.2105
     43 O          68.2416   91.3190   10.9026 O.3     1  UNL1       -0.3532
     44 C          68.6063   92.3388    9.8647 C.3     1  UNL1        0.1740
     45 O          61.1550   89.7626    9.9016 O.3     1  UNL1       -0.3278
     46 C          61.4941   88.3045    9.8072 C.3     1  UNL1        0.2785
     47 O          61.1436   87.5316    8.5703 O.3     1  UNL1       -0.3302
     48 C          61.4826   86.0735    8.4758 C.3     1  UNL1        0.1198
     49 C          61.1322   85.3006    7.2389 C.3     1  UNL1        0.0322
     50 C          62.1721   85.3883    9.6182 C.3     1  UNL1        0.0534
     51 C          62.5226   86.1611   10.8551 C.3     1  UNL1        0.1245
     52 C          62.1835   87.6193   10.9496 C.3     1  UNL1        0.2426
     53 O          62.6498   88.1180   12.2852 O.2     1  UNL1       -0.4466
     54 C          63.2770   86.9680   13.0162 C.2     1  UNL1        0.2833
     55 N          63.8774   87.0186   14.3898 N.2     1  UNL1       -0.2263
     56 N          63.1984   85.7586   12.1324 N.pl3   1  UNL1       -0.2603
     57 C          63.7063   84.3876   12.4670 C.3     1  UNL1        0.1166
     58 C          63.8840   88.3067   15.1585 C.3     1  UNL1        0.1078
     59 C          63.1765   88.3963   16.4782 C.3     1  UNL1        0.0264
     60 C          64.5981   89.5053   14.6075 C.3     1  UNL1        0.0264
@<TRIPOS>BOND
     1    30    31    1
     2     1    31    1
     3     1     2    1
     4     2     3    1
     5     3     4    2
     6     3     5    1
     7     5     6    1
     8     5     7    1
     9     7    32    1
    10    33    32    1
    11    33    34    1
    12    34    35    1
    13    35    36    1
    14    35    43    1
    15    43    44    1
    16    35    37    1
    17    37    38    1
    18    37    39    1
    19    39    40    1
    20    39    41    1
    21     7     8    1
    22     8     9    1
    23     8    10    1
    24    10    45    1
    25    46    45    1
    26    46    47    1
    27    47    48    1
    28    48    49    1
    29    48    50    1
    30    51    50    1
    31    51    52    1
    32    52    53    1
    33    53    54    1
    34    54    55    2
    35    55    58    1
    36    58    59    1
    37    58    60    1
    38    54    56    1
    39    56    57    1
    40    10    11    1
    41    11    12    1
    42    11    13    1
    43    11    14    1
    44    14    15    1
    45    15    16    1
    46    15    17    1
    47    17    18    1
    48    18    19    1
    49    18    20    1
    50    20    21    1
    51    20    22    1
    52    22    23    1
    53    22    24    1
    54    24    25    1
    55    24    26    1
    56    24     1    1
    57    41    33    1
    58    52    46    1
    59    56    51    1
    60    38    42    1
    61    13    27    1
    62    23    28    1
    63    26    29    1
