@<TRIPOS>MOLECULE
*****
 28 32 0 0 0
SMALL
GASTEIGER

@<TRIPOS>ATOM
      1 C          62.1197   89.6438   11.6754 C.3     1  UNL1        0.1286
      2 N          61.0889   90.1664   12.6316 N.3     1  UNL1       -0.3150
      3 H          60.5403   89.3887   12.9985 H       1  UNL1        0.1192
      4 H          60.4727   90.8174   12.1449 H       1  UNL1        0.1192
      5 C          62.2097   88.1720   11.4001 C.3     1  UNL1        0.0259
      6 C          61.5471   87.5945   10.1846 C.3     1  UNL1        0.0021
      7 C          61.6371   86.1227    9.9093 C.3     1  UNL1        0.0047
      8 C          62.3895   85.2285   10.8496 C.3     1  UNL1        0.0271
      9 C          63.0520   85.8060   12.0651 C.3     1  UNL1        0.0906
     10 O          63.8045   84.9117   13.0054 O.3     1  UNL1       -0.3867
     11 C          61.6116   88.3059   10.4889 C.3     1  UNL1        0.0538
     12 C          60.7947   88.4888    9.2443 C.3     1  UNL1        0.0906
     13 O          60.0423   89.3830    8.3040 O.3     1  UNL1       -0.3867
     14 C          60.8846   87.0170    8.9691 C.3     1  UNL1        0.0271
     15 C          61.4572   89.0663   10.4598 C.3     1  UNL1        0.0288
     16 C          62.9621   87.2778   12.3404 C.3     1  UNL1        0.0288
     17 H          63.7651   83.9976   12.6834 H       1  UNL1        0.2102
     18 H          59.6785   88.8544    7.5766 H       1  UNL1        0.2102
     19 C          64.3501   91.1647   13.2650 C.3     1  UNL1        0.1672
     20 C          65.5013   92.0518   13.6366 C.3     1  UNL1        0.0372
     21 C          65.9785   92.7381   12.3910 C.3     1  UNL1        0.0226
     22 C          66.2258   93.2619   11.0073 C.3     1  UNL1        0.0216
     23 C          65.1223   92.2752   11.2497 C.3     1  UNL1        0.0764
     24 N          64.1159   91.3028   11.7898 N.am    1  UNL1       -0.2691
     25 C          63.0606   90.5931   10.9944 C.2     1  UNL1        0.2403
     26 O          62.9462   90.8326    9.5181 O.2     1  UNL1       -0.2734
     27 N          62.7903   89.4206   15.1425 N.1     1  UNL1       -0.1942
     28 C          63.5702   90.2926   14.2037 C.1     1  UNL1        0.0925
@<TRIPOS>BOND
     1    27    28    3
     2    19    28    1
     3    19    20    1
     4    21    20    1
     5    21    22    1
     6    23    22    1
     7    23    24    1
     8    24    25   am
     9    25    26    2
    10    25     1    1
    11     1     2    1
    12     1     5    1
    13     5     6    1
    14     6     7    1
    15     7     8    1
    16     8     9    1
    17     9    10    1
    18     9    11    1
    19    11    12    1
    20    12    13    1
    21    12    14    1
    22    12    15    1
    23     9    16    1
    24    24    19    1
    25    15     5    1
    26    23    21    1
    27    16     5    1
    28    14     7    1
    29     2     3    1
    30     2     4    1
    31    10    17    1
    32    13    18    1
@<TRIPOS>MOLECULE
*****
 28 32 0 0 0
SMALL
GASTEIGER

@<TRIPOS>ATOM
      1 C          62.5501   90.2027   12.7026 C.3     1  UNL1        0.1286
      2 N          61.9892   89.7519   14.0188 N.3     1  UNL1       -0.3150
      3 H          62.5947   90.0729   14.7742 H       1  UNL1        0.1192
      4 H          61.9362   88.7334   14.0349 H       1  UNL1        0.1192
      5 C          63.8203   90.9996   12.6621 C.3     1  UNL1        0.0259
      6 C          64.5581   91.3000   13.9331 C.3     1  UNL1        0.0021
      7 C          65.8282   92.0969   13.8925 C.3     1  UNL1        0.0047
      8 C          66.3605   92.5935   12.5810 C.3     1  UNL1        0.0271
      9 C          65.6227   92.2931   11.3100 C.3     1  UNL1        0.0906
     10 O          66.1550   92.7897    9.9985 O.3     1  UNL1       -0.3867
     11 C          63.9071   90.9167   13.7536 C.3     1  UNL1        0.0538
     12 C          64.0258   90.8035   15.2446 C.3     1  UNL1        0.0906
     13 O          63.4935   90.3069   16.5561 O.3     1  UNL1       -0.3867
     14 C          65.2959   91.6004   15.2040 C.3     1  UNL1        0.0271
     15 C          63.2880   90.5031   13.9736 C.3     1  UNL1        0.0288
     16 C          64.3526   91.4962   11.3506 C.3     1  UNL1        0.0288
     17 H          66.9766   93.2829   10.1489 H       1  UNL1        0.2102
     18 H          64.0855   90.5861   17.2719 H       1  UNL1        0.2102
     19 C          62.5395   87.2805   11.5733 C.3     1  UNL1        0.1672
     20 C          62.2999   86.0667   10.7251 C.3     1  UNL1        0.0372
     21 C          61.4709   86.4816    9.5458 C.3     1  UNL1        0.0226
     22 C          60.6563   87.1808    8.4981 C.3     1  UNL1        0.0216
     23 C          61.1980   87.9517    9.6653 C.3     1  UNL1        0.0764
     24 N          61.8584   88.4455   10.9183 N.am    1  UNL1       -0.2691
     25 C          61.8409   89.8565   11.4270 C.2     1  UNL1        0.2403
     26 O          61.1142   90.9213   10.6602 O.2     1  UNL1       -0.2734
     27 N          64.1056   87.3634   14.1308 N.1     1  UNL1       -0.1942
     28 C          63.3225   87.3220   12.8521 C.1     1  UNL1        0.0925
@<TRIPOS>BOND
     1    27    28    3
     2    19    28    1
     3    19    20    1
     4    21    20    1
     5    21    22    1
     6    23    22    1
     7    23    24    1
     8    24    25   am
     9    25    26    2
    10    25     1    1
    11     1     2    1
    12     1     5    1
    13     5     6    1
    14     6     7    1
    15     7     8    1
    16     8     9    1
    17     9    10    1
    18     9    11    1
    19    11    12    1
    20    12    13    1
    21    12    14    1
    22    12    15    1
    23     9    16    1
    24    24    19    1
    25    15     5    1
    26    23    21    1
    27    16     5    1
    28    14     7    1
    29     2     3    1
    30     2     4    1
    31    10    17    1
    32    13    18    1
@<TRIPOS>MOLECULE
*****
 28 32 0 0 0
SMALL
GASTEIGER

@<TRIPOS>ATOM
      1 C          62.4603   89.4623   12.5668 C.3     1  UNL1        0.1286
      2 N          61.0341   89.8023   12.8837 N.3     1  UNL1       -0.3150
      3 H          60.9560   90.8024   13.0684 H       1  UNL1        0.1192
      4 H          60.7350   89.2800   13.7071 H       1  UNL1        0.1192
      5 C          63.5045   90.5392   12.5609 C.3     1  UNL1        0.0259
      6 C          64.2086   90.9081   13.8330 C.3     1  UNL1        0.0021
      7 C          65.2528   91.9849   13.8271 C.3     1  UNL1        0.0047
      8 C          65.5928   92.6929   12.5491 C.3     1  UNL1        0.0271
      9 C          64.8887   92.3241   11.2771 C.3     1  UNL1        0.0906
     10 O          65.2288   93.0321    9.9992 O.3     1  UNL1       -0.3867
     11 C          63.6584   90.3958   13.6387 C.3     1  UNL1        0.0538
     12 C          63.8686   90.2001   15.1109 C.3     1  UNL1        0.0906
     13 O          63.5286   89.4921   16.3888 O.3     1  UNL1       -0.3867
     14 C          64.9128   91.2769   15.1050 C.3     1  UNL1        0.0271
     15 C          63.1645   89.8312   13.8389 C.3     1  UNL1        0.0288
     16 C          63.8446   91.2472   11.2830 C.3     1  UNL1        0.0288
     17 H          65.9175   93.6936   10.1694 H       1  UNL1        0.2102
     18 H          64.0707   89.8483   17.1100 H       1  UNL1        0.2102
     19 C          61.3927   87.9996   10.0104 C.3     1  UNL1        0.1672
     20 C          61.1181   86.9791    8.9458 C.3     1  UNL1        0.0372
     21 C          61.8662   85.7278    9.2992 C.3     1  UNL1        0.0226
     22 C          62.7085   84.6426    9.9014 C.3     1  UNL1        0.0216
     23 C          62.6031   85.9751   10.5821 C.3     1  UNL1        0.0764
     24 N          62.3105   87.3790   11.0216 N.am    1  UNL1       -0.2691
     25 C          62.8423   88.0455   12.2557 C.2     1  UNL1        0.2403
     26 O          63.7560   87.2952   13.1788 O.2     1  UNL1       -0.2734
     27 N          60.2984   90.7914   10.1010 N.1     1  UNL1       -0.1942
     28 C          60.8455   89.3955   10.0557 C.1     1  UNL1        0.0925
@<TRIPOS>BOND
     1    27    28    3
     2    19    28    1
     3    19    20    1
     4    21    20    1
     5    21    22    1
     6    23    22    1
     7    23    24    1
     8    24    25   am
     9    25    26    2
    10    25     1    1
    11     1     2    1
    12     1     5    1
    13     5     6    1
    14     6     7    1
    15     7     8    1
    16     8     9    1
    17     9    10    1
    18     9    11    1
    19    11    12    1
    20    12    13    1
    21    12    14    1
    22    12    15    1
    23     9    16    1
    24    24    19    1
    25    15     5    1
    26    23    21    1
    27    16     5    1
    28    14     7    1
    29     2     3    1
    30     2     4    1
    31    10    17    1
    32    13    18    1
@<TRIPOS>MOLECULE
*****
 28 32 0 0 0
SMALL
GASTEIGER

@<TRIPOS>ATOM
      1 C          61.8786   87.2139   11.4775 C.3     1  UNL1        0.1286
      2 N          60.4011   87.4462   11.5921 N.3     1  UNL1       -0.3150
      3 H          59.9010   86.6983   11.1116 H       1  UNL1        0.1192
      4 H          60.1638   88.3422   11.1664 H       1  UNL1        0.1192
      5 C          62.3941   86.0162   10.7359 C.3     1  UNL1        0.0259
      6 C          62.8629   84.8095   11.4935 C.3     1  UNL1        0.0021
      7 C          63.3785   83.6120   10.7518 C.3     1  UNL1        0.0047
      8 C          63.4252   83.6211    9.2526 C.3     1  UNL1        0.0271
      9 C          62.9564   84.8279    8.4950 C.3     1  UNL1        0.0906
     10 O          63.0031   84.8370    6.9957 O.3     1  UNL1       -0.3867
     11 C          62.5725   85.5024   11.6898 C.3     1  UNL1        0.0538
     12 C          62.8162   84.8004   12.9927 C.3     1  UNL1        0.0906
     13 O          62.7695   84.7912   14.4920 O.3     1  UNL1       -0.3867
     14 C          63.3317   83.6028   12.2511 C.3     1  UNL1        0.0271
     15 C          62.3474   86.0071   12.2351 C.3     1  UNL1        0.0288
     16 C          62.4408   86.0254    9.2366 C.3     1  UNL1        0.0288
     17 H          63.3596   83.9927    6.6782 H       1  UNL1        0.2102
     18 H          63.1059   83.9429   14.8208 H       1  UNL1        0.2102
     19 C          62.3628   90.0638   10.2702 C.3     1  UNL1        0.1672
     20 C          62.8643   91.4561   10.0244 C.3     1  UNL1        0.0372
     21 C          63.8568   91.7877   11.0992 C.3     1  UNL1        0.0226
     22 C          64.7849   91.8301   12.2768 C.3     1  UNL1        0.0216
     23 C          63.9686   90.6005   12.0092 C.3     1  UNL1        0.0764
     24 N          63.0453   89.5352   11.4969 N.am    1  UNL1       -0.2691
     25 C          62.8405   88.1791   12.1045 C.2     1  UNL1        0.2403
     26 O          63.5975   87.7883   13.3390 O.2     1  UNL1       -0.2734
     27 N          60.3485   88.5950    8.6014 N.1     1  UNL1       -0.1942
     28 C          61.3556   89.3294    9.4358 C.1     1  UNL1        0.0925
@<TRIPOS>BOND
     1    27    28    3
     2    19    28    1
     3    19    20    1
     4    21    20    1
     5    21    22    1
     6    23    22    1
     7    23    24    1
     8    24    25   am
     9    25    26    2
    10    25     1    1
    11     1     2    1
    12     1     5    1
    13     5     6    1
    14     6     7    1
    15     7     8    1
    16     8     9    1
    17     9    10    1
    18     9    11    1
    19    11    12    1
    20    12    13    1
    21    12    14    1
    22    12    15    1
    23     9    16    1
    24    24    19    1
    25    15     5    1
    26    23    21    1
    27    16     5    1
    28    14     7    1
    29     2     3    1
    30     2     4    1
    31    10    17    1
    32    13    18    1
@<TRIPOS>MOLECULE
*****
 28 32 0 0 0
SMALL
GASTEIGER

@<TRIPOS>ATOM
      1 C          62.0164   86.2482   11.4444 C.3     1  UNL1        0.1286
      2 N          61.1296   85.9655   10.2681 N.3     1  UNL1       -0.3150
      3 H          60.9662   86.8290    9.7502 H       1  UNL1        0.1192
      4 H          60.2389   85.5918   10.5957 H       1  UNL1        0.1192
      5 C          62.5105   87.6425   11.6932 C.3     1  UNL1        0.0259
      6 C          62.1060   88.7568   10.7741 C.3     1  UNL1        0.0021
      7 C          62.6001   90.1510   11.0230 C.3     1  UNL1        0.0047
      8 C          63.4988   90.4309   12.1908 C.3     1  UNL1        0.0271
      9 C          63.9034   89.3167   13.1099 C.3     1  UNL1        0.0906
     10 O          64.8021   89.5966   14.2778 O.3     1  UNL1       -0.3867
     11 C          61.9597   87.9951   10.8111 C.3     1  UNL1        0.0538
     12 C          61.2073   88.4768    9.6063 C.3     1  UNL1        0.0906
     13 O          60.3085   88.1969    8.4384 O.3     1  UNL1       -0.3867
     14 C          61.7014   89.8710    9.8551 C.3     1  UNL1        0.0271
     15 C          61.6118   87.3626   10.5253 C.3     1  UNL1        0.0288
     16 C          63.4092   87.9224   12.8611 C.3     1  UNL1        0.0288
     17 H          65.0273   90.5399   14.2936 H       1  UNL1        0.2102
     18 H          60.1464   89.0195    7.9507 H       1  UNL1        0.2102
     19 C          63.5807   83.7341   10.4213 C.3     1  UNL1        0.1672
     20 C          64.2993   82.4196   10.3445 C.3     1  UNL1        0.0372
     21 C          64.3204   81.8219   11.7202 C.3     1  UNL1        0.0226
     22 C          64.1854   81.4843   13.1755 C.3     1  UNL1        0.0216
     23 C          63.6149   82.7670   12.6471 C.3     1  UNL1        0.0764
     24 N          63.1577   83.9487   11.8443 N.am    1  UNL1       -0.2691
     25 C          62.4090   85.1367   12.3719 C.2     1  UNL1        0.2403
     26 O          62.0529   85.2130   13.8270 O.2     1  UNL1       -0.2734
     27 N          63.0779   85.6052    8.1308 N.1     1  UNL1       -0.1942
     28 C          63.3293   84.6697    9.2760 C.1     1  UNL1        0.0925
@<TRIPOS>BOND
     1    27    28    3
     2    19    28    1
     3    19    20    1
     4    21    20    1
     5    21    22    1
     6    23    22    1
     7    23    24    1
     8    24    25   am
     9    25    26    2
    10    25     1    1
    11     1     2    1
    12     1     5    1
    13     5     6    1
    14     6     7    1
    15     7     8    1
    16     8     9    1
    17     9    10    1
    18     9    11    1
    19    11    12    1
    20    12    13    1
    21    12    14    1
    22    12    15    1
    23     9    16    1
    24    24    19    1
    25    15     5    1
    26    23    21    1
    27    16     5    1
    28    14     7    1
    29     2     3    1
    30     2     4    1
    31    10    17    1
    32    13    18    1
@<TRIPOS>MOLECULE
*****
 28 32 0 0 0
SMALL
GASTEIGER

@<TRIPOS>ATOM
      1 C          63.4165   84.7684   13.1396 C.3     1  UNL1        0.1286
      2 N          64.8927   84.6609   13.3826 N.3     1  UNL1       -0.3150
      3 H          65.3832   85.3424   12.8035 H       1  UNL1        0.1192
      4 H          65.2091   83.7211   13.1434 H       1  UNL1        0.1192
      5 C          62.8888   85.7758   12.1614 C.3     1  UNL1        0.0259
      6 C          63.1204   87.2395   12.3938 C.3     1  UNL1        0.0021
      7 C          62.5927   88.2468   11.4156 C.3     1  UNL1        0.0047
      8 C          61.8335   87.7905   10.2051 C.3     1  UNL1        0.0271
      9 C          61.6019   86.3268    9.9728 C.3     1  UNL1        0.0906
     10 O          60.8427   85.8705    8.7623 O.3     1  UNL1       -0.3867
     11 C          63.3076   86.5873   12.7713 C.3     1  UNL1        0.0538
     12 C          63.8796   87.6958   13.6043 C.3     1  UNL1        0.0906
     13 O          64.6389   88.1522   14.8148 O.3     1  UNL1       -0.3867
     14 C          63.3520   88.7032   12.6261 C.3     1  UNL1        0.0271
     15 C          63.6480   86.2322   13.3719 C.3     1  UNL1        0.0288
     16 C          62.1296   85.3195   10.9509 C.3     1  UNL1        0.0288
     17 H          60.5748   86.6420    8.2388 H       1  UNL1        0.2102
     18 H          64.6983   89.1203   14.8132 H       1  UNL1        0.2102
     19 C          63.0223   81.7731   12.3107 C.3     1  UNL1        0.1672
     20 C          62.5591   80.3479   12.2431 C.3     1  UNL1        0.0372
     21 C          61.5569   80.1339   13.3386 C.3     1  UNL1        0.0226
     22 C          60.6102   80.2216   14.4988 C.3     1  UNL1        0.0216
     23 C          61.4007   81.4267   14.0831 C.3     1  UNL1        0.0764
     24 N          62.3064   82.4397   13.4479 N.am    1  UNL1       -0.2691
     25 C          62.4679   83.8686   13.8748 C.2     1  UNL1        0.2403
     26 O          61.6807   84.3977   15.0369 O.2     1  UNL1       -0.2734
     27 N          65.0283   83.0633   10.4910 N.1     1  UNL1       -0.1942
     28 C          64.0253   82.4182   11.4009 C.1     1  UNL1        0.0925
@<TRIPOS>BOND
     1    27    28    3
     2    19    28    1
     3    19    20    1
     4    21    20    1
     5    21    22    1
     6    23    22    1
     7    23    24    1
     8    24    25   am
     9    25    26    2
    10    25     1    1
    11     1     2    1
    12     1     5    1
    13     5     6    1
    14     6     7    1
    15     7     8    1
    16     8     9    1
    17     9    10    1
    18     9    11    1
    19    11    12    1
    20    12    13    1
    21    12    14    1
    22    12    15    1
    23     9    16    1
    24    24    19    1
    25    15     5    1
    26    23    21    1
    27    16     5    1
    28    14     7    1
    29     2     3    1
    30     2     4    1
    31    10    17    1
    32    13    18    1
@<TRIPOS>MOLECULE
*****
 28 32 0 0 0
SMALL
GASTEIGER

@<TRIPOS>ATOM
      1 C          63.1581   89.6016   13.3362 C.3     1  UNL1        0.1286
      2 N          61.8122   90.0230   13.8472 N.3     1  UNL1       -0.3150
      3 H          61.8182   91.0257   14.0342 H       1  UNL1        0.1192
      4 H          61.6020   89.5178   14.7081 H       1  UNL1        0.1192
      5 C          64.2512   90.6164   13.1767 C.3     1  UNL1        0.0259
      6 C          64.3398   91.4323   11.9212 C.3     1  UNL1        0.0021
      7 C          65.4329   92.4470   11.7618 C.3     1  UNL1        0.0047
      8 C          66.4373   92.6459   12.8580 C.3     1  UNL1        0.0271
      9 C          66.3486   91.8301   14.1136 C.3     1  UNL1        0.0906
     10 O          67.3530   92.0291   15.2098 O.3     1  UNL1       -0.3867
     11 C          63.8641   90.8771   12.1828 C.3     1  UNL1        0.0538
     12 C          63.3355   91.2333   10.8250 C.3     1  UNL1        0.0906
     13 O          62.3311   91.0344    9.7288 O.3     1  UNL1       -0.3867
     14 C          64.4285   92.2481   10.6656 C.3     1  UNL1        0.0271
     15 C          63.2468   90.4175   12.0805 C.3     1  UNL1        0.0288
     16 C          65.2555   90.8154   14.2730 C.3     1  UNL1        0.0288
     17 H          67.9854   92.7163   14.9480 H       1  UNL1        0.2102
     18 H          62.5306   91.6359    8.9944 H       1  UNL1        0.2102
     19 C          63.6989   87.4439   15.5421 C.3     1  UNL1        0.1672
     20 C          63.9862   86.1556   16.2549 C.3     1  UNL1        0.0372
     21 C          64.1308   85.0770   15.2225 C.3     1  UNL1        0.0226
     22 C          64.2192   84.2307   13.9871 C.3     1  UNL1        0.0216
     23 C          63.9329   85.6986   13.8718 C.3     1  UNL1        0.0764
     24 N          63.6659   87.1614   14.0693 N.am    1  UNL1       -0.2691
     25 C          63.4108   88.1655   12.9845 C.2     1  UNL1        0.2403
     26 O          63.4085   87.7335   11.5481 O.2     1  UNL1       -0.2734
     27 N          63.2662   90.1160   16.8353 N.1     1  UNL1       -0.1942
     28 C          63.4826   88.7800   16.1887 C.1     1  UNL1        0.0925
@<TRIPOS>BOND
     1    27    28    3
     2    19    28    1
     3    19    20    1
     4    21    20    1
     5    21    22    1
     6    23    22    1
     7    23    24    1
     8    24    25   am
     9    25    26    2
    10    25     1    1
    11     1     2    1
    12     1     5    1
    13     5     6    1
    14     6     7    1
    15     7     8    1
    16     8     9    1
    17     9    10    1
    18     9    11    1
    19    11    12    1
    20    12    13    1
    21    12    14    1
    22    12    15    1
    23     9    16    1
    24    24    19    1
    25    15     5    1
    26    23    21    1
    27    16     5    1
    28    14     7    1
    29     2     3    1
    30     2     4    1
    31    10    17    1
    32    13    18    1
@<TRIPOS>MOLECULE
*****
 28 32 0 0 0
SMALL
GASTEIGER

@<TRIPOS>ATOM
      1 C          62.5252   89.5209   12.4975 C.3     1  UNL1        0.1286
      2 N          61.6266   90.5936   11.9572 N.3     1  UNL1       -0.3150
      3 H          61.0567   90.2115   11.2025 H       1  UNL1        0.1192
      4 H          62.1926   91.3631   11.5997 H       1  UNL1        0.1192
      5 C          62.4797   88.1399   11.9136 C.3     1  UNL1        0.0259
      6 C          61.7322   87.8895   10.6375 C.3     1  UNL1        0.0021
      7 C          61.6868   86.5085   10.0537 C.3     1  UNL1        0.0047
      8 C          62.3888   85.3781   10.7460 C.3     1  UNL1        0.0271
      9 C          63.1363   85.6286   12.0221 C.3     1  UNL1        0.0906
     10 O          63.8383   84.4981   12.7144 O.3     1  UNL1       -0.3867
     11 C          61.8671   88.5119   11.0817 C.3     1  UNL1        0.0538
     12 C          61.0302   89.0199    9.9452 C.3     1  UNL1        0.0906
     13 O          60.3282   90.1504    9.2530 O.3     1  UNL1       -0.3867
     14 C          60.9848   87.6390    9.3614 C.3     1  UNL1        0.0271
     15 C          61.7777   89.2704   11.2214 C.3     1  UNL1        0.0288
     16 C          63.1817   87.0095   12.6059 C.3     1  UNL1        0.0288
     17 H          63.7105   83.6802   12.2089 H       1  UNL1        0.2102
     18 H          59.8978   89.8198    8.4490 H       1  UNL1        0.2102
     19 C          64.7770   91.6789   12.2028 C.3     1  UNL1        0.1672
     20 C          65.9372   92.5928   12.4653 C.3     1  UNL1        0.0372
     21 C          66.4121   92.3481   13.8670 C.3     1  UNL1        0.0226
     22 C          66.6550   91.8925   15.2754 C.3     1  UNL1        0.0216
     23 C          65.5453   91.2831   14.4708 C.3     1  UNL1        0.0764
     24 N          64.5348   90.8695   13.4423 N.am    1  UNL1       -0.2691
     25 C          63.4692   89.8292   13.6217 C.2     1  UNL1        0.2403
     26 O          63.3476   89.0971   14.9253 O.2     1  UNL1       -0.2734
     27 N          63.2152   91.5014    9.6476 N.1     1  UNL1       -0.1942
     28 C          63.9961   91.5901   10.9252 C.1     1  UNL1        0.0925
@<TRIPOS>BOND
     1    27    28    3
     2    19    28    1
     3    19    20    1
     4    21    20    1
     5    21    22    1
     6    23    22    1
     7    23    24    1
     8    24    25   am
     9    25    26    2
    10    25     1    1
    11     1     2    1
    12     1     5    1
    13     5     6    1
    14     6     7    1
    15     7     8    1
    16     8     9    1
    17     9    10    1
    18     9    11    1
    19    11    12    1
    20    12    13    1
    21    12    14    1
    22    12    15    1
    23     9    16    1
    24    24    19    1
    25    15     5    1
    26    23    21    1
    27    16     5    1
    28    14     7    1
    29     2     3    1
    30     2     4    1
    31    10    17    1
    32    13    18    1
@<TRIPOS>MOLECULE
*****
 28 32 0 0 0
SMALL
GASTEIGER

@<TRIPOS>ATOM
      1 C          63.0594   85.1837   12.1720 C.3     1  UNL1        0.1286
      2 N          63.6939   85.5614   13.4777 N.3     1  UNL1       -0.3150
      3 H          63.4968   86.5413   13.6806 H       1  UNL1        0.1192
      4 H          64.7026   85.4227   13.4182 H       1  UNL1        0.1192
      5 C          62.2817   86.2031   11.3935 C.3     1  UNL1        0.0259
      6 C          62.4554   87.6637   11.6873 C.3     1  UNL1        0.0021
      7 C          61.6776   88.6830   10.9088 C.3     1  UNL1        0.0047
      8 C          60.7262   88.2416    9.8364 C.3     1  UNL1        0.0271
      9 C          60.5525   86.7810    9.5426 C.3     1  UNL1        0.0906
     10 O          59.6010   86.3397    8.4702 O.3     1  UNL1       -0.3867
     11 C          62.7572   87.0069   11.9709 C.3     1  UNL1        0.0538
     12 C          63.4068   88.1050   12.7597 C.3     1  UNL1        0.0906
     13 O          64.3583   88.5463   13.8321 O.3     1  UNL1       -0.3867
     14 C          62.6291   89.1243   11.9812 C.3     1  UNL1        0.0271
     15 C          63.2331   86.6444   12.4658 C.3     1  UNL1        0.0288
     16 C          61.3302   85.7617   10.3211 C.3     1  UNL1        0.0288
     17 H          59.1833   87.1175    8.0685 H       1  UNL1        0.2102
     18 H          64.3507   89.5144   13.8926 H       1  UNL1        0.2102
     19 C          62.1598   82.6969   13.8515 C.3     1  UNL1        0.1672
     20 C          61.8691   81.2978   14.3080 C.3     1  UNL1        0.0372
     21 C          62.2900   80.3576   13.2176 C.3     1  UNL1        0.0226
     22 C          62.7936   79.6803   11.9776 C.3     1  UNL1        0.0216
     23 C          62.8408   81.1755   12.0873 C.3     1  UNL1        0.0764
     24 N          62.7603   82.6212   12.4791 N.am    1  UNL1       -0.2691
     25 C          63.2027   83.7867   11.6448 C.2     1  UNL1        0.2403
     26 O          63.7884   83.5552   10.2834 O.2     1  UNL1       -0.2734
     27 N          61.6327   85.2055   15.4100 N.1     1  UNL1       -0.1942
     28 C          61.8962   83.9512   14.6308 C.1     1  UNL1        0.0925
@<TRIPOS>BOND
     1    27    28    3
     2    19    28    1
     3    19    20    1
     4    21    20    1
     5    21    22    1
     6    23    22    1
     7    23    24    1
     8    24    25   am
     9    25    26    2
    10    25     1    1
    11     1     2    1
    12     1     5    1
    13     5     6    1
    14     6     7    1
    15     7     8    1
    16     8     9    1
    17     9    10    1
    18     9    11    1
    19    11    12    1
    20    12    13    1
    21    12    14    1
    22    12    15    1
    23     9    16    1
    24    24    19    1
    25    15     5    1
    26    23    21    1
    27    16     5    1
    28    14     7    1
    29     2     3    1
    30     2     4    1
    31    10    17    1
    32    13    18    1
