@<TRIPOS>MOLECULE
*****
 36 39 0 0 0
SMALL
GASTEIGER

@<TRIPOS>ATOM
      1 N          63.2561   85.6145   14.1529 N.ar    1  UNL1       -0.2459
      2 C          63.8149   86.8728   13.5574 C.ar    1  UNL1        0.1116
      3 C          64.2365   87.7707   14.6826 C.ar    1  UNL1        0.0908
      4 C          63.9382   87.0673   15.9735 C.ar    1  UNL1        0.1363
      5 N          63.3323   85.7348   15.6461 N.ar    1  UNL1       -0.1661
      6 N          64.8488   89.1327   14.5417 N.am    1  UNL1       -0.2766
      7 C          64.3774   90.0586   13.4598 C.2     1  UNL1        0.2706
      8 O          63.2936   89.6225   12.5189 O.2     1  UNL1       -0.2680
      9 H          65.5601   89.4189   15.1592 H       1  UNL1        0.1553
     10 C          64.9897   91.4206   13.3189 C.ar    1  UNL1        0.1764
     11 C          65.3614   92.0911   12.0296 C.ar    1  UNL1        0.0688
     12 C          65.9393   93.4362   12.3564 C.ar    1  UNL1        0.1961
     13 O          65.9248   93.5971   13.8477 O.2     1  UNL1       -0.3517
     14 N          65.3379   92.3513   14.4426 N.ar    1  UNL1       -0.0722
     15 C          66.4432   94.4436   11.3658 C.ar    1  UNL1        0.1375
     16 C          65.9182   95.8486   11.3919 C.ar    1  UNL1        0.1211
     17 N          66.4221   96.8559   10.4013 N.ar    1  UNL1       -0.2390
     18 C          67.4510   96.4585    9.3847 C.ar    1  UNL1        0.1195
     19 C          67.9759   95.0536    9.3587 C.ar    1  UNL1        0.1196
     20 N          67.4720   94.0461   10.3493 N.ar    1  UNL1       -0.2375
     21 C          62.3409   83.1833   14.1138 C.3     1  UNL1        0.0312
     22 C          62.7159   84.4419   13.3892 C.3     1  UNL1        0.1274
     23 C          62.5506   84.5281   11.9007 C.ar    1  UNL1        0.0038
     24 C          61.6220   85.5453   11.3068 C.ar    1  UNL1       -0.0025
     25 C          61.4568   85.6314    9.8185 C.ar    1  UNL1        0.0036
     26 C          62.2202   84.7002    8.9240 C.ar    1  UNL1        0.0714
     27 C          63.1488   83.6829    9.5179 C.ar    1  UNL1        0.0074
     28 C          63.3140   83.5968   11.0063 C.ar    1  UNL1        0.0692
     29 C          62.0550   84.7863    7.4356 C.3     1  UNL1        0.4186
     30 F          61.8898   84.8724    5.9472 F       1  UNL1       -0.1659
     31 F          60.7248   85.4540    7.6218 F       1  UNL1       -0.1659
     32 F          63.3851   84.1186    7.2493 F       1  UNL1       -0.1659
     33 C          64.2427   82.5795   11.6003 C.3     1  UNL1        0.4183
     34 F          65.1712   81.5622   12.1942 F       1  UNL1       -0.1659
     35 F          63.2203   81.5079   11.3630 F       1  UNL1       -0.1659
     36 F          65.2650   83.6512   11.8375 F       1  UNL1       -0.1659
@<TRIPOS>BOND
     1    22    21    1
     2    22    23    1
     3    23    24   ar
     4    24    25   ar
     5    25    26   ar
     6    26    29    1
     7    29    30    1
     8    29    31    1
     9    29    32    1
    10    26    27   ar
    11    27    28   ar
    12    28    33    1
    13    33    34    1
    14    33    35    1
    15    33    36    1
    16    22     1    1
    17     1     2   ar
    18     2     3   ar
    19     3     6    1
    20     6     7   am
    21     7     8    2
    22     7    10    1
    23    10    11   ar
    24    11    12   ar
    25    12    15    1
    26    15    16   ar
    27    16    17   ar
    28    17    18   ar
    29    18    19   ar
    30    19    20   ar
    31    12    13   ar
    32    13    14   ar
    33     3     4   ar
    34     4     5   ar
    35    28    23   ar
    36     5     1   ar
    37    14    10   ar
    38    20    15   ar
    39     6     9    1
@<TRIPOS>MOLECULE
*****
 36 39 0 0 0
SMALL
GASTEIGER

@<TRIPOS>ATOM
      1 N          61.6436   87.4705   11.2939 N.ar    1  UNL1       -0.2459
      2 C          61.9107   88.3897   10.1391 C.ar    1  UNL1        0.1116
      3 C          60.5896   88.8453    9.5940 C.ar    1  UNL1        0.0908
      4 C          59.5060   88.2076   10.4119 C.ar    1  UNL1        0.1363
      5 N          60.1574   87.3579   11.4625 N.ar    1  UNL1       -0.1661
      6 N          60.3877   89.7753    8.4345 N.am    1  UNL1       -0.2766
      7 C          59.5603   89.3419    7.2608 C.2     1  UNL1        0.2706
      8 O          58.9348   87.9786    7.2466 O.2     1  UNL1       -0.2680
      9 H          60.7982   90.6700    8.4438 H       1  UNL1        0.1553
     10 C          59.3583   90.2719    6.1013 C.ar    1  UNL1        0.1764
     11 C          60.4421   90.9145    5.2874 C.ar    1  UNL1        0.0688
     12 C          59.7906   91.7623    4.2352 C.ar    1  UNL1        0.1961
     13 O          58.3043   91.6436    4.3989 O.2     1  UNL1       -0.3517
     14 N          58.0371   90.7224    5.5523 N.ar    1  UNL1       -0.0722
     15 C          60.5009   92.5844    3.2010 C.ar    1  UNL1        0.1375
     16 C          61.9235   92.2720    2.8418 C.ar    1  UNL1        0.1211
     17 N          62.6337   93.0941    1.8076 N.ar    1  UNL1       -0.2390
     18 C          61.9215   94.2285    1.1324 C.ar    1  UNL1        0.1195
     19 C          60.4990   94.5408    1.4915 C.ar    1  UNL1        0.1196
     20 N          59.7887   93.7188    2.5258 N.ar    1  UNL1       -0.2375
     21 C          63.7646   87.5863   12.7898 C.3     1  UNL1        0.0312
     22 C          62.6806   86.7843   12.1328 C.3     1  UNL1        0.1274
     23 C          62.6335   85.2961   12.3148 C.ar    1  UNL1        0.0038
     24 C          62.5410   84.7116   13.6931 C.ar    1  UNL1       -0.0025
     25 C          62.4939   83.2234   13.8750 C.ar    1  UNL1        0.0036
     26 C          62.5393   82.3198   12.6786 C.ar    1  UNL1        0.0714
     27 C          62.6317   82.9043   11.3003 C.ar    1  UNL1        0.0074
     28 C          62.6788   84.3924   11.1184 C.ar    1  UNL1        0.0692
     29 C          62.4921   80.8315   12.8606 C.3     1  UNL1        0.4186
     30 F          62.4450   79.3434   13.0426 F       1  UNL1       -0.1659
     31 F          62.9064   80.6436   11.4312 F       1  UNL1       -0.1659
     32 F          62.0779   81.0195   14.2899 F       1  UNL1       -0.1659
     33 C          62.7713   84.9770    9.7400 C.3     1  UNL1        0.4183
     34 F          62.8637   85.5616    8.3618 F       1  UNL1       -0.1659
     35 F          61.2953   85.2436    9.7542 F       1  UNL1       -0.1659
     36 F          64.2473   84.7104    9.7259 F       1  UNL1       -0.1659
@<TRIPOS>BOND
     1    22    21    1
     2    22    23    1
     3    23    24   ar
     4    24    25   ar
     5    25    26   ar
     6    26    29    1
     7    29    30    1
     8    29    31    1
     9    29    32    1
    10    26    27   ar
    11    27    28   ar
    12    28    33    1
    13    33    34    1
    14    33    35    1
    15    33    36    1
    16    22     1    1
    17     1     2   ar
    18     2     3   ar
    19     3     6    1
    20     6     7   am
    21     7     8    2
    22     7    10    1
    23    10    11   ar
    24    11    12   ar
    25    12    15    1
    26    15    16   ar
    27    16    17   ar
    28    17    18   ar
    29    18    19   ar
    30    19    20   ar
    31    12    13   ar
    32    13    14   ar
    33     3     4   ar
    34     4     5   ar
    35    28    23   ar
    36     5     1   ar
    37    14    10   ar
    38    20    15   ar
    39     6     9    1
@<TRIPOS>MOLECULE
*****
 36 39 0 0 0
SMALL
GASTEIGER

@<TRIPOS>ATOM
      1 N          64.4685   90.4446   15.4103 N.ar    1  UNL1       -0.2459
      2 C          64.6098   89.1999   14.5852 C.ar    1  UNL1        0.1116
      3 C          63.6988   88.1564   15.1607 C.ar    1  UNL1        0.0908
      4 C          62.9945   88.7562   16.3415 C.ar    1  UNL1        0.1363
      5 N          63.4702   90.1704   16.4957 N.ar    1  UNL1       -0.1661
      6 N          63.5230   86.7585   14.6459 N.am    1  UNL1       -0.2766
      7 C          63.3630   85.6193   15.6085 C.2     1  UNL1        0.2706
      8 O          63.3788   85.8780   17.0860 O.2     1  UNL1       -0.2680
      9 H          63.5126   86.5887   13.6762 H       1  UNL1        0.1553
     10 C          63.1872   84.2215   15.0937 C.ar    1  UNL1        0.1764
     11 C          63.2882   83.7905   13.6605 C.ar    1  UNL1        0.0688
     12 C          63.0430   82.3118   13.6027 C.ar    1  UNL1        0.1961
     13 O          62.7903   81.8289   15.0002 O.2     1  UNL1       -0.3517
     14 N          62.8795   83.0092   15.9217 N.ar    1  UNL1       -0.0722
     15 C          63.0492   81.4648   12.3648 C.ar    1  UNL1        0.1375
     16 C          63.4752   82.0560   11.0536 C.ar    1  UNL1        0.1211
     17 N          63.4814   81.2090    9.8157 N.ar    1  UNL1       -0.2390
     18 C          63.0617   79.7707    9.8888 C.ar    1  UNL1        0.1195
     19 C          62.6358   79.1796   11.2000 C.ar    1  UNL1        0.1196
     20 N          62.6295   80.0265   12.4380 N.ar    1  UNL1       -0.2375
     21 C          65.3371   92.7212   16.3118 C.3     1  UNL1        0.0312
     22 C          65.1976   91.7366   15.1888 C.3     1  UNL1        0.1274
     23 C          65.7872   92.0442   13.8441 C.ar    1  UNL1        0.0038
     24 C          64.9036   92.1030   12.6335 C.ar    1  UNL1       -0.0025
     25 C          65.4932   92.4105   11.2890 C.ar    1  UNL1        0.0036
     26 C          66.9664   92.6592   11.1551 C.ar    1  UNL1        0.0714
     27 C          67.8500   92.6003   12.3658 C.ar    1  UNL1        0.0074
     28 C          67.2604   92.2928   13.7103 C.ar    1  UNL1        0.0692
     29 C          67.5560   92.9667    9.8105 C.3     1  UNL1        0.4186
     30 F          68.1455   93.2742    8.4660 F       1  UNL1       -0.1659
     31 F          67.9366   91.5250    9.6476 F       1  UNL1       -0.1659
     32 F          67.1753   94.4084    9.9734 F       1  UNL1       -0.1659
     33 C          68.1440   92.2340   14.9211 C.3     1  UNL1        0.4183
     34 F          69.0275   92.1751   16.1318 F       1  UNL1       -0.1659
     35 F          68.0117   90.7401   14.9449 F       1  UNL1       -0.1659
     36 F          68.2762   93.7279   14.8972 F       1  UNL1       -0.1659
@<TRIPOS>BOND
     1    22    21    1
     2    22    23    1
     3    23    24   ar
     4    24    25   ar
     5    25    26   ar
     6    26    29    1
     7    29    30    1
     8    29    31    1
     9    29    32    1
    10    26    27   ar
    11    27    28   ar
    12    28    33    1
    13    33    34    1
    14    33    35    1
    15    33    36    1
    16    22     1    1
    17     1     2   ar
    18     2     3   ar
    19     3     6    1
    20     6     7   am
    21     7     8    2
    22     7    10    1
    23    10    11   ar
    24    11    12   ar
    25    12    15    1
    26    15    16   ar
    27    16    17   ar
    28    17    18   ar
    29    18    19   ar
    30    19    20   ar
    31    12    13   ar
    32    13    14   ar
    33     3     4   ar
    34     4     5   ar
    35    28    23   ar
    36     5     1   ar
    37    14    10   ar
    38    20    15   ar
    39     6     9    1
@<TRIPOS>MOLECULE
*****
 36 39 0 0 0
SMALL
GASTEIGER

@<TRIPOS>ATOM
      1 N          61.1572   88.0330    9.9166 N.ar    1  UNL1       -0.2459
      2 C          62.2232   88.4999   10.8629 C.ar    1  UNL1        0.1116
      3 C          61.9680   89.9454   11.1721 C.ar    1  UNL1        0.0908
      4 C          60.7442   90.3718   10.4167 C.ar    1  UNL1        0.1363
      5 N          60.2431   89.1899    9.6408 N.ar    1  UNL1       -0.1661
      6 N          62.7919   90.8122   12.0775 N.am    1  UNL1       -0.2766
      7 C          63.5458   90.1995   13.2204 C.2     1  UNL1        0.2706
      8 O          63.4759   88.7200   13.4578 O.2     1  UNL1       -0.2680
      9 H          62.8378   91.7832   11.9217 H       1  UNL1        0.1553
     10 C          64.3697   91.0663   14.1258 C.ar    1  UNL1        0.1764
     11 C          65.8106   91.4320   13.9253 C.ar    1  UNL1        0.0688
     12 C          66.2287   92.3113   15.0663 C.ar    1  UNL1        0.1961
     13 O          65.0463   92.4890   15.9721 O.2     1  UNL1       -0.3517
     14 N          63.8973   91.7195   15.3908 N.ar    1  UNL1       -0.0722
     15 C          67.5903   92.9081   15.2665 C.ar    1  UNL1        0.1375
     16 C          68.7692   92.3527   14.5236 C.ar    1  UNL1        0.1211
     17 N          70.1307   92.9495   14.7237 N.ar    1  UNL1       -0.2390
     18 C          70.3134   94.1016   15.6667 C.ar    1  UNL1        0.1195
     19 C          69.1345   94.6569   16.4096 C.ar    1  UNL1        0.1196
     20 N          67.7729   94.0602   16.2095 N.ar    1  UNL1       -0.2375
     21 C          60.1211   86.4049    8.1771 C.3     1  UNL1        0.0312
     22 C          61.0280   86.6517    9.3461 C.3     1  UNL1        0.1274
     23 C          61.8056   85.5173    9.9448 C.ar    1  UNL1        0.0038
     24 C          61.7045   85.2315   11.4138 C.ar    1  UNL1       -0.0025
     25 C          62.4821   84.0971   12.0124 C.ar    1  UNL1        0.0036
     26 C          63.3609   83.2484   11.1420 C.ar    1  UNL1        0.0714
     27 C          63.4620   83.5342    9.6730 C.ar    1  UNL1        0.0074
     28 C          62.6843   84.6686    9.0744 C.ar    1  UNL1        0.0692
     29 C          64.1385   82.1140   11.7406 C.3     1  UNL1        0.4186
     30 F          64.9162   80.9796   12.3393 F       1  UNL1       -0.1659
     31 F          63.5356   81.1728   10.7404 F       1  UNL1       -0.1659
     32 F          64.7415   83.0552   12.7409 F       1  UNL1       -0.1659
     33 C          62.7854   84.9545    7.6053 C.3     1  UNL1        0.4183
     34 F          62.8865   85.2403    6.1363 F       1  UNL1       -0.1659
     35 F          63.8344   85.9911    7.8792 F       1  UNL1       -0.1659
     36 F          61.7365   83.9179    7.3314 F       1  UNL1       -0.1659
@<TRIPOS>BOND
     1    22    21    1
     2    22    23    1
     3    23    24   ar
     4    24    25   ar
     5    25    26   ar
     6    26    29    1
     7    29    30    1
     8    29    31    1
     9    29    32    1
    10    26    27   ar
    11    27    28   ar
    12    28    33    1
    13    33    34    1
    14    33    35    1
    15    33    36    1
    16    22     1    1
    17     1     2   ar
    18     2     3   ar
    19     3     6    1
    20     6     7   am
    21     7     8    2
    22     7    10    1
    23    10    11   ar
    24    11    12   ar
    25    12    15    1
    26    15    16   ar
    27    16    17   ar
    28    17    18   ar
    29    18    19   ar
    30    19    20   ar
    31    12    13   ar
    32    13    14   ar
    33     3     4   ar
    34     4     5   ar
    35    28    23   ar
    36     5     1   ar
    37    14    10   ar
    38    20    15   ar
    39     6     9    1
@<TRIPOS>MOLECULE
*****
 36 39 0 0 0
SMALL
GASTEIGER

@<TRIPOS>ATOM
      1 N          65.5340   92.1729   14.0433 N.ar    1  UNL1       -0.2459
      2 C          65.2250   91.0577   13.0889 C.ar    1  UNL1        0.1116
      3 C          64.1834   90.1823   13.7203 C.ar    1  UNL1        0.0908
      4 C          63.8487   90.7564   15.0651 C.ar    1  UNL1        0.1363
      5 N          64.6834   91.9867   15.2647 N.ar    1  UNL1       -0.1661
      6 N          63.5822   88.9493   13.1136 N.am    1  UNL1       -0.2766
      7 C          63.9181   87.5983   13.6721 C.2     1  UNL1        0.2706
      8 O          64.8553   87.4804   14.8374 O.2     1  UNL1       -0.2680
      9 H          62.9671   89.0267   12.3488 H       1  UNL1        0.1553
     10 C          63.3169   86.3653   13.0654 C.ar    1  UNL1        0.1764
     11 C          63.4148   84.9737   13.6166 C.ar    1  UNL1        0.0688
     12 C          62.6705   84.0558   12.6928 C.ar    1  UNL1        0.1961
     13 O          62.1126   84.8800   11.5706 O.2     1  UNL1       -0.3517
     14 N          62.5121   86.3075   11.8008 N.ar    1  UNL1       -0.0722
     15 C          62.5120   82.5737   12.8615 C.ar    1  UNL1        0.1375
     16 C          63.0206   81.6398   11.8036 C.ar    1  UNL1        0.1211
     17 N          62.8621   80.1578   11.9723 N.ar    1  UNL1       -0.2390
     18 C          62.1950   79.6096   13.1989 C.ar    1  UNL1        0.1195
     19 C          61.6865   80.5436   14.2568 C.ar    1  UNL1        0.1196
     20 N          61.8450   82.0257   14.0881 N.ar    1  UNL1       -0.2375
     21 C          67.4475   93.6963   14.9194 C.3     1  UNL1        0.0312
     22 C          66.5204   93.2799   13.8162 C.3     1  UNL1        0.1274
     23 C          66.5797   93.9704   12.4859 C.ar    1  UNL1        0.0038
     24 C          65.8480   95.2633   12.2787 C.ar    1  UNL1       -0.0025
     25 C          65.9073   95.9538   10.9484 C.ar    1  UNL1        0.0036
     26 C          66.6983   95.3514    9.8253 C.ar    1  UNL1        0.0714
     27 C          67.4301   94.0585   10.0325 C.ar    1  UNL1        0.0074
     28 C          67.3708   93.3681   11.3628 C.ar    1  UNL1        0.0692
     29 C          66.7576   96.0420    8.4950 C.3     1  UNL1        0.4186
     30 F          66.8170   96.7324    7.1647 F       1  UNL1       -0.1659
     31 F          65.5529   96.8559    8.8638 F       1  UNL1       -0.1659
     32 F          67.9624   95.2280    8.1262 F       1  UNL1       -0.1659
     33 C          68.1026   92.0751   11.5700 C.3     1  UNL1        0.4183
     34 F          68.8343   90.7822   11.7772 F       1  UNL1       -0.1659
     35 F          67.8572   91.7065   10.1369 F       1  UNL1       -0.1659
     36 F          68.3481   92.4437   13.0031 F       1  UNL1       -0.1659
@<TRIPOS>BOND
     1    22    21    1
     2    22    23    1
     3    23    24   ar
     4    24    25   ar
     5    25    26   ar
     6    26    29    1
     7    29    30    1
     8    29    31    1
     9    29    32    1
    10    26    27   ar
    11    27    28   ar
    12    28    33    1
    13    33    34    1
    14    33    35    1
    15    33    36    1
    16    22     1    1
    17     1     2   ar
    18     2     3   ar
    19     3     6    1
    20     6     7   am
    21     7     8    2
    22     7    10    1
    23    10    11   ar
    24    11    12   ar
    25    12    15    1
    26    15    16   ar
    27    16    17   ar
    28    17    18   ar
    29    18    19   ar
    30    19    20   ar
    31    12    13   ar
    32    13    14   ar
    33     3     4   ar
    34     4     5   ar
    35    28    23   ar
    36     5     1   ar
    37    14    10   ar
    38    20    15   ar
    39     6     9    1
@<TRIPOS>MOLECULE
*****
 36 39 0 0 0
SMALL
GASTEIGER

@<TRIPOS>ATOM
      1 N          63.9510   83.6550   11.4572 N.ar    1  UNL1       -0.2459
      2 C          62.8785   84.6127   11.0300 C.ar    1  UNL1        0.1116
      3 C          62.8971   84.6915    9.5322 C.ar    1  UNL1        0.0908
      4 C          63.9811   83.7825    9.0337 C.ar    1  UNL1        0.1363
      5 N          64.6325   83.1419   10.2234 N.ar    1  UNL1       -0.1661
      6 N          61.9907   85.5318    8.6822 N.am    1  UNL1       -0.2766
      7 C          60.9386   86.3859    9.3250 C.2     1  UNL1        0.2706
      8 O          60.7927   86.3998   10.8179 O.2     1  UNL1       -0.2680
      9 H          62.0865   85.5226    7.7024 H       1  UNL1        0.1553
     10 C          60.0322   87.2262    8.4750 C.ar    1  UNL1        0.1764
     11 C          60.4487   88.3906    7.6261 C.ar    1  UNL1        0.0688
     12 C          59.2241   88.9336    6.9512 C.ar    1  UNL1        0.1961
     13 O          58.0508   88.1048    7.3829 O.2     1  UNL1       -0.3517
     14 N          58.5502   87.0495    8.3247 N.ar    1  UNL1       -0.0722
     15 C          59.1805   90.1006    6.0097 C.ar    1  UNL1        0.1375
     16 C          57.8693   90.7516    5.6824 C.ar    1  UNL1        0.1211
     17 N          57.8257   91.9185    4.7410 N.ar    1  UNL1       -0.2390
     18 C          59.0933   92.4345    4.1268 C.ar    1  UNL1        0.1195
     19 C          60.4044   91.7835    4.4542 C.ar    1  UNL1        0.1196
     20 N          60.4481   90.6165    5.3956 N.ar    1  UNL1       -0.2375
     21 C          64.9073   81.9445   13.1629 C.3     1  UNL1        0.0312
     22 C          64.2837   83.2769   12.8701 C.3     1  UNL1        0.1274
     23 C          63.9928   84.2312   13.9903 C.ar    1  UNL1        0.0038
     24 C          64.8364   85.4587   14.1680 C.ar    1  UNL1       -0.0025
     25 C          64.5454   86.4130   15.2881 C.ar    1  UNL1        0.0036
     26 C          63.4109   86.1398   16.2305 C.ar    1  UNL1        0.0714
     27 C          62.5673   84.9123   16.0528 C.ar    1  UNL1        0.0074
     28 C          62.8582   83.9580   14.9327 C.ar    1  UNL1        0.0692
     29 C          63.1199   87.0941   17.3507 C.3     1  UNL1        0.4186
     30 F          62.8290   88.0484   18.4707 F       1  UNL1       -0.1659
     31 F          62.7153   85.9445   18.2251 F       1  UNL1       -0.1659
     32 F          63.5245   88.2437   16.4762 F       1  UNL1       -0.1659
     33 C          62.0146   82.7305   14.7550 C.3     1  UNL1        0.4183
     34 F          61.1710   81.5030   14.5773 F       1  UNL1       -0.1659
     35 F          61.1699   83.4565   13.7504 F       1  UNL1       -0.1659
     36 F          62.8594   82.0044   15.7596 F       1  UNL1       -0.1659
@<TRIPOS>BOND
     1    22    21    1
     2    22    23    1
     3    23    24   ar
     4    24    25   ar
     5    25    26   ar
     6    26    29    1
     7    29    30    1
     8    29    31    1
     9    29    32    1
    10    26    27   ar
    11    27    28   ar
    12    28    33    1
    13    33    34    1
    14    33    35    1
    15    33    36    1
    16    22     1    1
    17     1     2   ar
    18     2     3   ar
    19     3     6    1
    20     6     7   am
    21     7     8    2
    22     7    10    1
    23    10    11   ar
    24    11    12   ar
    25    12    15    1
    26    15    16   ar
    27    16    17   ar
    28    17    18   ar
    29    18    19   ar
    30    19    20   ar
    31    12    13   ar
    32    13    14   ar
    33     3     4   ar
    34     4     5   ar
    35    28    23   ar
    36     5     1   ar
    37    14    10   ar
    38    20    15   ar
    39     6     9    1
@<TRIPOS>MOLECULE
*****
 36 39 0 0 0
SMALL
GASTEIGER

@<TRIPOS>ATOM
      1 N          63.3220   85.2179   13.2522 N.ar    1  UNL1       -0.2459
      2 C          62.7108   86.1605   12.2584 C.ar    1  UNL1        0.1116
      3 C          62.1633   85.3467   11.1235 C.ar    1  UNL1        0.0908
      4 C          62.4363   83.9010   11.4159 C.ar    1  UNL1        0.1363
      5 N          63.1524   83.8214   12.7315 N.ar    1  UNL1       -0.1661
      6 N          61.4655   85.8842    9.9093 N.am    1  UNL1       -0.2766
      7 C          60.5611   87.0748   10.0297 C.2     1  UNL1        0.2706
      8 O          60.3545   87.7279   11.3641 O.2     1  UNL1       -0.2680
      9 H          61.6011   85.4555    9.0335 H       1  UNL1        0.1553
     10 C          59.8633   87.6123    8.8155 C.ar    1  UNL1        0.1764
     11 C          60.1919   88.8909    8.1034 C.ar    1  UNL1        0.0688
     12 C          59.2460   89.0343    6.9481 C.ar    1  UNL1        0.1961
     13 O          58.3327   87.8444    6.9462 O.2     1  UNL1       -0.3517
     14 N          58.7142   86.9654    8.1004 N.ar    1  UNL1       -0.0722
     15 C          59.2183   90.1685    5.9669 C.ar    1  UNL1        0.1375
     16 C          57.9154   90.8225    5.6131 C.ar    1  UNL1        0.1211
     17 N          57.8876   91.9567    4.6320 N.ar    1  UNL1       -0.2390
     18 C          59.1627   92.4371    4.0045 C.ar    1  UNL1        0.1195
     19 C          60.4654   91.7831    4.3583 C.ar    1  UNL1        0.1196
     20 N          60.4933   90.6488    5.3395 N.ar    1  UNL1       -0.2375
     21 C          64.6459   84.5564   15.3875 C.3     1  UNL1        0.0312
     22 C          63.9863   85.6039   14.5405 C.3     1  UNL1        0.1274
     23 C          63.9909   87.0376   14.9818 C.ar    1  UNL1        0.0038
     24 C          64.6273   88.0860   14.1184 C.ar    1  UNL1       -0.0025
     25 C          64.6319   89.5196   14.5597 C.ar    1  UNL1        0.0036
     26 C          64.0000   89.9047   15.8645 C.ar    1  UNL1        0.0714
     27 C          63.3636   88.8563   16.7279 C.ar    1  UNL1        0.0074
     28 C          63.3590   87.4227   16.2866 C.ar    1  UNL1        0.0692
     29 C          64.0046   91.3384   16.3058 C.3     1  UNL1        0.4186
     30 F          64.0092   92.7720   16.7470 F       1  UNL1       -0.1659
     31 F          62.7676   91.0925   17.1178 F       1  UNL1       -0.1659
     32 F          65.2416   91.5843   15.4938 F       1  UNL1       -0.1659
     33 C          62.7225   86.3741   17.1501 C.3     1  UNL1        0.4183
     34 F          62.0861   85.3256   18.0135 F       1  UNL1       -0.1659
     35 F          64.0737   85.9824   17.6703 F       1  UNL1       -0.1659
     36 F          61.3713   86.7658   16.6298 F       1  UNL1       -0.1659
@<TRIPOS>BOND
     1    22    21    1
     2    22    23    1
     3    23    24   ar
     4    24    25   ar
     5    25    26   ar
     6    26    29    1
     7    29    30    1
     8    29    31    1
     9    29    32    1
    10    26    27   ar
    11    27    28   ar
    12    28    33    1
    13    33    34    1
    14    33    35    1
    15    33    36    1
    16    22     1    1
    17     1     2   ar
    18     2     3   ar
    19     3     6    1
    20     6     7   am
    21     7     8    2
    22     7    10    1
    23    10    11   ar
    24    11    12   ar
    25    12    15    1
    26    15    16   ar
    27    16    17   ar
    28    17    18   ar
    29    18    19   ar
    30    19    20   ar
    31    12    13   ar
    32    13    14   ar
    33     3     4   ar
    34     4     5   ar
    35    28    23   ar
    36     5     1   ar
    37    14    10   ar
    38    20    15   ar
    39     6     9    1
@<TRIPOS>MOLECULE
*****
 36 39 0 0 0
SMALL
GASTEIGER

@<TRIPOS>ATOM
      1 N          64.4078   90.5572   15.6017 N.ar    1  UNL1       -0.2459
      2 C          64.4315   89.3242   14.7479 C.ar    1  UNL1        0.1116
      3 C          63.5489   88.2968   15.3925 C.ar    1  UNL1        0.0908
      4 C          62.9797   88.8949   16.6449 C.ar    1  UNL1        0.1363
      5 N          63.5106   90.2919   16.7741 N.ar    1  UNL1       -0.1661
      6 N          63.2823   86.9142   14.8757 N.am    1  UNL1       -0.2766
      7 C          64.4113   85.9375   14.7297 C.2     1  UNL1        0.2706
      8 O          65.8069   86.3434   15.1006 O.2     1  UNL1       -0.2680
      9 H          62.3663   86.6478   14.6322 H       1  UNL1        0.1553
     10 C          64.1447   84.5548   14.2128 C.ar    1  UNL1        0.1764
     11 C          62.9629   83.6975   14.5569 C.ar    1  UNL1        0.0688
     12 C          63.1010   82.3995   13.8178 C.ar    1  UNL1        0.1961
     13 O          64.3681   82.4546   13.0169 O.2     1  UNL1       -0.3517
     14 N          65.0132   83.7867   13.2610 N.ar    1  UNL1       -0.0722
     15 C          62.1405   81.2486   13.8704 C.ar    1  UNL1        0.1375
     16 C          60.7208   81.4753   14.2984 C.ar    1  UNL1        0.1211
     17 N          59.7604   80.3244   14.3510 N.ar    1  UNL1       -0.2390
     18 C          60.2195   78.9466   13.9756 C.ar    1  UNL1        0.1195
     19 C          61.6391   78.7199   13.5476 C.ar    1  UNL1        0.1196
     20 N          62.5997   79.8708   13.4950 N.ar    1  UNL1       -0.2375
     21 C          65.3040   92.8558   16.4159 C.3     1  UNL1        0.0312
     22 C          65.1509   91.8317   15.3307 C.3     1  UNL1        0.1274
     23 C          65.7409   92.0821   13.9745 C.ar    1  UNL1        0.0038
     24 C          64.8514   92.1348   12.7678 C.ar    1  UNL1       -0.0025
     25 C          65.4414   92.3852   11.4116 C.ar    1  UNL1        0.0036
     26 C          66.9208   92.5828   11.2622 C.ar    1  UNL1        0.0714
     27 C          67.8102   92.5300   12.4688 C.ar    1  UNL1        0.0074
     28 C          67.2203   92.2797   13.8250 C.ar    1  UNL1        0.0692
     29 C          67.5108   92.8331    9.9059 C.3     1  UNL1        0.4186
     30 F          68.1007   93.0834    8.5497 F       1  UNL1       -0.1659
     31 F          66.6360   94.0414    9.7484 F       1  UNL1       -0.1659
     32 F          68.3856   91.6249   10.0634 F       1  UNL1       -0.1659
     33 C          68.1097   92.2270   15.0318 C.3     1  UNL1        0.4183
     34 F          68.9991   92.1742   16.2385 F       1  UNL1       -0.1659
     35 F          67.9804   90.7329   15.0617 F       1  UNL1       -0.1659
     36 F          68.2390   93.7211   15.0018 F       1  UNL1       -0.1659
@<TRIPOS>BOND
     1    22    21    1
     2    22    23    1
     3    23    24   ar
     4    24    25   ar
     5    25    26   ar
     6    26    29    1
     7    29    30    1
     8    29    31    1
     9    29    32    1
    10    26    27   ar
    11    27    28   ar
    12    28    33    1
    13    33    34    1
    14    33    35    1
    15    33    36    1
    16    22     1    1
    17     1     2   ar
    18     2     3   ar
    19     3     6    1
    20     6     7   am
    21     7     8    2
    22     7    10    1
    23    10    11   ar
    24    11    12   ar
    25    12    15    1
    26    15    16   ar
    27    16    17   ar
    28    17    18   ar
    29    18    19   ar
    30    19    20   ar
    31    12    13   ar
    32    13    14   ar
    33     3     4   ar
    34     4     5   ar
    35    28    23   ar
    36     5     1   ar
    37    14    10   ar
    38    20    15   ar
    39     6     9    1
