@<TRIPOS>MOLECULE
*****
 72 80 0 0 0
SMALL
GASTEIGER

@<TRIPOS>ATOM
      1 C          58.5121   96.5038   -0.8668 C.3     1  UNL1        0.1217
      2 N          63.3693   96.7195   -5.2384 N.3     1  UNL1       -0.1862
      3 C          62.5016   96.6848   -6.4615 C.3     1  UNL1        0.1775
      4 C          61.0095   96.6209   -6.3210 C.2     1  UNL1        0.2452
      5 O          60.1419   96.5862   -7.5441 O.2     1  UNL1       -0.2732
      6 N          60.3852   96.5916   -4.9575 N.am    1  UNL1       -0.2541
      7 C          58.8931   96.5277   -4.8170 C.3     1  UNL1        0.1577
      8 C          58.2688   96.4984   -3.4534 C.2     1  UNL1        0.2445
      9 O          56.7767   96.4344   -3.3130 O.2     1  UNL1       -0.2731
     10 N          59.1365   96.5330   -2.2303 N.am    1  UNL1       -0.2705
     11 C          60.6285   96.5970   -2.3708 C.3     1  UNL1        0.1359
     12 C          61.2529   96.6263   -3.7344 C.3     1  UNL1        0.1908
     13 N          62.7449   96.6902   -3.8749 N.am    1  UNL1       -0.1863
     14 C          63.6126   96.7249   -2.6517 C.2     1  UNL1        0.3191
     15 O          62.9882   96.6956   -1.2882 O.2     1  UNL1       -0.2512
     16 N          65.1046   96.7888   -2.7922 N.am    1  UNL1       -0.2836
     17 H          65.5144   96.8080   -3.6872 H       1  UNL1        0.1513
     18 C          64.8613   96.7834   -5.3789 C.3     1  UNL1        0.1188
     19 C          64.9445   94.2515   -5.9554 C.2     1  UNL1       -0.0034
     20 C          65.6491   95.5250   -5.5925 C.2     1  UNL1       -0.0071
     21 C          58.0255   96.4930   -6.0400 C.3     1  UNL1        0.0556
     22 C          57.2459   95.2552   -6.3717 C.ar    1  UNL1       -0.0198
     23 C          57.6955   93.9231   -5.8490 C.ar    1  UNL1       -0.0011
     24 C          56.9159   92.6852   -6.1807 C.ar    1  UNL1        0.0363
     25 C          55.6867   92.7795   -7.0351 C.ar    1  UNL1        0.1337
     26 O          54.9071   91.5417   -7.3668 O.3     1  UNL1       -0.5055
     27 C          55.2370   94.1116   -7.5578 C.ar    1  UNL1        0.0363
     28 C          56.0166   95.3495   -7.2262 C.ar    1  UNL1       -0.0011
     29 H          55.1880   90.7095   -7.0402 H       1  UNL1        0.2922
     30 C          65.9723   96.8235   -1.5692 C.3     1  UNL1        0.1177
     31 C          65.5226   96.1417   -0.3110 C.ar    1  UNL1       -0.0025
     32 C          65.6184   96.8560    1.0045 C.ar    1  UNL1       -0.0026
     33 C          65.1687   96.1742    2.2626 C.ar    1  UNL1       -0.0003
     34 C          64.6233   94.7781    2.2053 C.ar    1  UNL1       -0.0000
     35 C          64.5275   94.0637    0.8898 C.ar    1  UNL1       -0.0003
     36 C          64.9772   94.7455   -0.3684 C.ar    1  UNL1       -0.0026
     37 C          59.2930   95.9862    0.3048 C.ar    1  UNL1        0.0135
     38 C          60.3250   96.8548    0.9609 C.ar    1  UNL1       -0.0012
     39 C          61.1059   96.3373    2.1324 C.ar    1  UNL1       -0.0002
     40 C          60.8547   94.9512    2.6477 C.ar    1  UNL1        0.0016
     41 C          59.8226   94.0826    1.9916 C.ar    1  UNL1        0.0214
     42 C          59.3593   92.6847    2.2764 C.ar    1  UNL1        0.0722
     43 C          58.2921   92.3382    1.2809 C.ar    1  UNL1        0.0805
     44 N          58.0959   93.5220    0.3809 N.ar    1  UNL1       -0.3241
     45 C          57.1243   93.6120   -0.7583 C.3     1  UNL1        0.1305
     46 C          59.0418   94.6001    0.8202 C.ar    1  UNL1        0.0577
     47 C          59.8731   91.7902    3.3655 C.2     1  UNL1        0.2510
     48 O          61.3020   91.3343    3.3500 O.2     1  UNL1       -0.2698
     49 N          58.9578   91.3516    4.4700 N.am    1  UNL1       -0.2791
     50 H          58.0199   91.6508    4.4801 H       1  UNL1        0.1552
     51 C          59.4714   90.4572    5.5591 C.ar    1  UNL1        0.0701
     52 C          58.6379   89.3066    6.0401 C.ar    1  UNL1        0.0191
     53 C          59.1515   88.4121    7.1292 C.ar    1  UNL1        0.0356
     54 C          60.4986   88.6682    7.7373 C.ar    1  UNL1        0.1319
     55 N          61.3321   89.8188    7.2562 N.ar    1  UNL1       -0.2279
     56 C          60.8185   90.7133    6.1672 C.ar    1  UNL1        0.1149
     57 N          61.0122   87.7738    8.8263 N.pl3   1  UNL1       -0.2897
     58 C          61.4136   88.3568   10.1488 C.3     1  UNL1        0.1136
     59 C          61.9273   87.4625   11.2380 C.3     1  UNL1        0.1123
     60 N          62.0395   85.9850   11.0047 N.pl3   1  UNL1       -0.3041
     61 C          61.6381   85.4019    9.6823 C.3     1  UNL1        0.1123
     62 C          61.1244   86.2963    8.5930 C.3     1  UNL1        0.1136
     63 C          62.5531   85.0906   12.0938 C.ar    1  UNL1        0.0479
     64 C          62.3731   83.6049   11.9914 C.ar    1  UNL1        0.0145
     65 C          62.8868   82.7104   13.0805 C.ar    1  UNL1        0.0051
     66 C          63.5804   83.3015   14.2719 C.ar    1  UNL1        0.0715
     67 C          63.7604   84.7872   14.3742 C.ar    1  UNL1        0.0051
     68 C          63.2467   85.6817   13.2852 C.ar    1  UNL1        0.0145
     69 C          64.0940   82.4071   15.3610 C.3     1  UNL1        0.4186
     70 F          64.6076   81.5126   16.4501 F       1  UNL1       -0.1659
     71 F          63.1828   81.3119   14.8912 F       1  UNL1       -0.1659
     72 F          65.0051   83.5022   15.8307 F       1  UNL1       -0.1659
@<TRIPOS>BOND
     1    19    20    2
     2    20    18    1
     3    18     2    1
     4     2     3    1
     5     3     4    1
     6     4     5    2
     7     4     6   am
     8     6     7    1
     9     7    21    1
    10    21    22    1
    11    22    23   ar
    12    23    24   ar
    13    24    25   ar
    14    25    26    1
    15    25    27   ar
    16    27    28   ar
    17     7     8    1
    18     8     9    2
    19     8    10   am
    20    10     1    1
    21     1    37    1
    22    37    38   ar
    23    38    39   ar
    24    39    40   ar
    25    40    41   ar
    26    41    42   ar
    27    42    47    1
    28    47    48    2
    29    47    49   am
    30    49    51    1
    31    51    52   ar
    32    52    53   ar
    33    53    54   ar
    34    54    57    1
    35    57    58    1
    36    58    59    1
    37    59    60    1
    38    60    63    1
    39    63    64   ar
    40    64    65   ar
    41    65    66   ar
    42    66    69    1
    43    69    70    1
    44    69    71    1
    45    69    72    1
    46    66    67   ar
    47    67    68   ar
    48    60    61    1
    49    61    62    1
    50    54    55   ar
    51    55    56   ar
    52    42    43   ar
    53    43    44   ar
    54    44    45    1
    55    44    46   ar
    56    10    11    1
    57    11    12    1
    58    12    13    1
    59    13    14   am
    60    14    15    2
    61    14    16   am
    62    16    30    1
    63    30    31    1
    64    31    32   ar
    65    32    33   ar
    66    33    34   ar
    67    34    35   ar
    68    35    36   ar
    69    13     2    1
    70    36    31   ar
    71    12     6    1
    72    28    22   ar
    73    46    37   ar
    74    46    41   ar
    75    56    51   ar
    76    62    57    1
    77    68    63   ar
    78    26    29    1
    79    49    50    1
    80    16    17    1
