@<TRIPOS>MOLECULE
*****
 43 48 0 0 0
SMALL
GASTEIGER

@<TRIPOS>ATOM
      1 C          60.2698   93.7586   -2.8287 C.3     1  UNL1        0.1149
      2 C          61.7652   93.7429   -2.7127 C.ar    1  UNL1        0.0883
      3 C          62.8528   93.8604   -3.7390 C.ar    1  UNL1        0.1643
      4 N          64.1714   93.7761   -3.0288 N.ar    1  UNL1       -0.2134
      5 C          63.8987   93.6066   -1.5636 C.ar    1  UNL1        0.1833
      6 N          62.4116   93.5861   -1.3683 N.ar    1  UNL1       -0.2854
      7 C          61.5625   93.4448   -0.1397 C.ar    1  UNL1        0.1163
      8 C          62.2089   93.2880    1.2047 C.ar    1  UNL1        0.1221
      9 N          61.3598   93.1467    2.4331 N.ar    1  UNL1       -0.2104
     10 C          59.8644   93.1623    2.3171 C.ar    1  UNL1        0.2220
     11 N          59.2180   93.3192    0.9727 N.ar    1  UNL1       -0.1971
     12 C          60.0671   93.4604   -0.2557 C.ar    1  UNL1        0.1526
     13 N          59.4208   93.6173   -1.6003 N.pl3   1  UNL1       -0.2899
     14 C          57.9253   93.6329   -1.7163 C.3     1  UNL1        0.0745
     15 C          57.0484   92.4433   -1.9728 C.3     1  UNL1        0.0198
     16 C          55.6254   92.9160   -2.0112 C.3     1  UNL1        0.0018
     17 C          55.6228   94.3978   -1.7784 C.3     1  UNL1        0.0018
     18 C          57.0442   94.8409   -1.5961 C.3     1  UNL1        0.0198
     19 C          59.2239   95.2772   -4.6590 C.3     1  UNL1        0.0022
     20 C          59.6235   93.9154   -4.1732 C.3     1  UNL1        0.0259
     21 C          62.6564   94.0320   -5.2162 C.1     1  UNL1        0.1210
     22 N          62.4600   94.2036   -6.6934 N.1     1  UNL1       -0.1892
     23 N          59.0153   93.0211    3.5457 N.pl3   1  UNL1       -0.2801
     24 H          58.2836   93.6578    3.7142 H       1  UNL1        0.1552
     25 C          59.2812   91.9098    4.5174 C.ar    1  UNL1        0.0849
     26 C          60.6684   91.3586    4.6652 C.ar    1  UNL1        0.0179
     27 C          60.9342   90.2472    5.6370 C.ar    1  UNL1        0.0060
     28 C          59.8129   89.6871    6.4608 C.ar    1  UNL1        0.0564
     29 C          58.4257   90.2383    6.3130 C.ar    1  UNL1        0.0427
     30 C          58.1598   91.3496    5.3413 C.ar    1  UNL1        0.1522
     31 C          60.0787   88.5758    7.4326 C.2     1  UNL1        0.2459
     32 O          59.1927   87.3654    7.4485 O.2     1  UNL1       -0.2701
     33 N          61.2305   88.6747    8.3883 N.am    1  UNL1       -0.3024
     34 H          61.8120   89.4691    8.3779 H       1  UNL1        0.1497
     35 C          61.4964   87.5633    9.3601 C.3     1  UNL1        0.0746
     36 C          62.3154   86.3791    8.9394 C.3     1  UNL1        0.0369
     37 C          62.5812   85.2678    9.9110 C.3     1  UNL1        0.0738
     38 N          62.0280   85.3406   11.3034 N.3     1  UNL1       -0.2714
     39 C          62.2939   84.2292   12.2751 C.3     1  UNL1        0.0896
     40 C          61.2091   86.5248   11.7241 C.3     1  UNL1        0.0738
     41 C          60.9432   87.6361   10.7524 C.3     1  UNL1        0.0369
     42 O          56.7726   91.9008    5.1935 O.3     1  UNL1       -0.4702
     43 C          55.5932   90.9741    5.1957 C.3     1  UNL1        0.2525
@<TRIPOS>BOND
     1    19    20    1
     2     1    20    1
     3     1     2    1
     4     2     3   ar
     5     3    21    1
     6    21    22    3
     7     3     4   ar
     8     4     5   ar
     9     5     6   ar
    10     6     7    1
    11     7     8   ar
    12     8     9   ar
    13     9    10   ar
    14    10    23    1
    15    23    25    1
    16    25    26   ar
    17    26    27   ar
    18    27    28   ar
    19    28    31    1
    20    31    32    2
    21    31    33   am
    22    33    35    1
    23    35    36    1
    24    36    37    1
    25    37    38    1
    26    38    39    1
    27    38    40    1
    28    40    41    1
    29    28    29   ar
    30    29    30   ar
    31    30    42    1
    32    42    43    1
    33    10    11   ar
    34    11    12   ar
    35    12    13    1
    36    13    14    1
    37    14    15    1
    38    15    16    1
    39    16    17    1
    40    17    18    1
    41    13     1    1
    42    18    14    1
    43     6     2   ar
    44    12     7   ar
    45    30    25   ar
    46    41    35    1
    47    23    24    1
    48    33    34    1
@<TRIPOS>MOLECULE
*****
 43 48 0 0 0
SMALL
GASTEIGER

@<TRIPOS>ATOM
      1 C          62.5123   86.1973   10.3571 C.3     1  UNL1        0.1149
      2 C          62.5722   87.1512   11.5131 C.ar    1  UNL1        0.0883
      3 C          63.2379   87.0623   12.8543 C.ar    1  UNL1        0.1643
      4 N          62.9503   88.3318   13.5997 N.ar    1  UNL1       -0.2134
      5 C          62.1067   89.2053   12.7192 C.ar    1  UNL1        0.1833
      6 N          61.8731   88.4757   11.4296 N.ar    1  UNL1       -0.2854
      7 C          61.1140   88.8463   10.1900 C.ar    1  UNL1        0.1163
      8 C          60.4149   90.1707   10.1065 C.ar    1  UNL1        0.1221
      9 N          59.6559   90.5413    8.8669 N.ar    1  UNL1       -0.2104
     10 C          59.5960   89.5874    7.7109 C.ar    1  UNL1        0.2220
     11 N          60.2951   88.2629    7.7944 N.ar    1  UNL1       -0.1971
     12 C          61.0541   87.8924    9.0340 C.ar    1  UNL1        0.1526
     13 N          61.7533   86.5678    9.1175 N.pl3   1  UNL1       -0.2899
     14 C          61.6934   85.6139    7.9615 C.3     1  UNL1        0.0745
     15 C          60.4473   85.1332    7.2787 C.3     1  UNL1        0.0198
     16 C          60.8528   84.1954    6.1804 C.3     1  UNL1        0.0018
     17 C          62.3495   84.0965    6.1845 C.3     1  UNL1        0.0018
     18 C          62.8690   84.9732    7.2852 C.3     1  UNL1        0.0198
     19 C          62.5790   83.7368   11.1886 C.3     1  UNL1        0.0022
     20 C          63.2115   84.8728   10.4406 C.3     1  UNL1        0.0259
     21 C          64.0490   85.9066   13.3612 C.1     1  UNL1        0.1210
     22 N          64.8599   84.7510   13.8681 N.1     1  UNL1       -0.1892
     23 N          58.8369   89.9580    6.4713 N.pl3   1  UNL1       -0.2801
     24 H          57.9094   89.6503    6.3516 H       1  UNL1        0.1552
     25 C          59.4910   90.7973    5.4141 C.ar    1  UNL1        0.0849
     26 C          60.9229   90.5518    5.0410 C.ar    1  UNL1        0.0179
     27 C          61.5770   91.3912    3.9837 C.ar    1  UNL1        0.0060
     28 C          60.7992   92.4761    3.2998 C.ar    1  UNL1        0.0564
     29 C          59.3672   92.7216    3.6729 C.ar    1  UNL1        0.0427
     30 C          58.7131   91.8823    4.7301 C.ar    1  UNL1        0.1522
     31 C          61.4532   93.3154    2.2426 C.2     1  UNL1        0.2459
     32 O          60.9133   94.6789    1.9269 O.2     1  UNL1       -0.2701
     33 N          62.6472   92.7914    1.5011 N.am    1  UNL1       -0.3024
     34 H          63.0015   91.8966    1.7082 H       1  UNL1        0.1497
     35 C          63.3013   93.6309    0.4439 C.3     1  UNL1        0.0746
     36 C          64.5093   94.4538    0.7806 C.3     1  UNL1        0.0369
     37 C          65.1634   95.2932   -0.2765 C.3     1  UNL1        0.0738
     38 N          64.6094   95.3097   -1.6704 N.3     1  UNL1       -0.2714
     39 C          65.2635   96.1491   -2.7276 C.3     1  UNL1        0.0896
     40 C          63.4014   94.4867   -2.0071 C.3     1  UNL1        0.0738
     41 C          62.7473   93.6473   -0.9499 C.3     1  UNL1        0.0369
     42 O          57.2812   92.1278    5.1033 O.3     1  UNL1       -0.4702
     43 C          56.2640   91.0389    4.9313 C.3     1  UNL1        0.2525
@<TRIPOS>BOND
     1    19    20    1
     2     1    20    1
     3     1     2    1
     4     2     3   ar
     5     3    21    1
     6    21    22    3
     7     3     4   ar
     8     4     5   ar
     9     5     6   ar
    10     6     7    1
    11     7     8   ar
    12     8     9   ar
    13     9    10   ar
    14    10    23    1
    15    23    25    1
    16    25    26   ar
    17    26    27   ar
    18    27    28   ar
    19    28    31    1
    20    31    32    2
    21    31    33   am
    22    33    35    1
    23    35    36    1
    24    36    37    1
    25    37    38    1
    26    38    39    1
    27    38    40    1
    28    40    41    1
    29    28    29   ar
    30    29    30   ar
    31    30    42    1
    32    42    43    1
    33    10    11   ar
    34    11    12   ar
    35    12    13    1
    36    13    14    1
    37    14    15    1
    38    15    16    1
    39    16    17    1
    40    17    18    1
    41    13     1    1
    42    18    14    1
    43     6     2   ar
    44    12     7   ar
    45    30    25   ar
    46    41    35    1
    47    23    24    1
    48    33    34    1
@<TRIPOS>MOLECULE
*****
 43 48 0 0 0
SMALL
GASTEIGER

@<TRIPOS>ATOM
      1 C          62.7682   83.4433   11.8238 C.3     1  UNL1        0.1149
      2 C          63.1123   82.3761   12.8201 C.ar    1  UNL1        0.0883
      3 C          63.2165   80.8848   12.6978 C.ar    1  UNL1        0.1643
      4 N          63.5998   80.3353   14.0399 N.ar    1  UNL1       -0.2134
      5 C          63.7324   81.4870   14.9916 C.ar    1  UNL1        0.1833
      6 N          63.4311   82.7483   14.2378 N.ar    1  UNL1       -0.2854
      7 C          63.4059   84.1877   14.6592 C.ar    1  UNL1        0.1163
      8 C          63.7248   84.5599   16.0768 C.ar    1  UNL1        0.1221
      9 N          63.6996   85.9993   16.4981 N.ar    1  UNL1       -0.2104
     10 C          63.3555   87.0665   15.5018 C.ar    1  UNL1        0.2220
     11 N          63.0367   86.6943   14.0841 N.ar    1  UNL1       -0.1971
     12 C          63.0619   85.2549   13.6628 C.ar    1  UNL1        0.1526
     13 N          62.7430   84.8827   12.2451 N.pl3   1  UNL1       -0.2899
     14 C          62.3990   85.9499   11.2487 C.3     1  UNL1        0.0745
     15 C          63.0228   87.3114   11.1642 C.3     1  UNL1        0.0198
     16 C          62.3801   88.0459   10.0252 C.3     1  UNL1        0.0018
     17 C          61.3589   87.1384    9.4058 C.3     1  UNL1        0.0018
     18 C          61.3706   85.8430   10.1620 C.3     1  UNL1        0.0198
     19 C          63.4790   83.2592    9.3316 C.3     1  UNL1        0.0022
     20 C          62.4494   83.0711   10.4061 C.3     1  UNL1        0.0259
     21 C          62.9792   80.0836   11.4520 C.1     1  UNL1        0.1210
     22 N          62.7417   79.2825   10.2063 N.1     1  UNL1       -0.1892
     23 N          63.3303   88.5059   15.9231 N.pl3   1  UNL1       -0.2801
     24 H          62.9085   88.7621   16.7750 H       1  UNL1        0.1552
     25 C          63.9477   89.5549   15.0466 C.ar    1  UNL1        0.0849
     26 C          65.3409   90.0377   15.3222 C.ar    1  UNL1        0.0179
     27 C          65.9583   91.0868   14.4456 C.ar    1  UNL1        0.0060
     28 C          65.1825   91.6529   13.2934 C.ar    1  UNL1        0.0564
     29 C          63.7893   91.1701   13.0178 C.ar    1  UNL1        0.0427
     30 C          63.1719   90.1211   13.8943 C.ar    1  UNL1        0.1522
     31 C          65.7999   92.7019   12.4168 C.2     1  UNL1        0.2459
     32 O          66.6295   93.7940   13.0246 O.2     1  UNL1       -0.2701
     33 N          65.5877   92.6589   10.9325 N.am    1  UNL1       -0.3024
     34 H          65.0433   91.9422   10.5337 H       1  UNL1        0.1497
     35 C          66.2052   93.7080   10.0560 C.3     1  UNL1        0.0746
     36 C          67.4515   93.3990    9.2807 C.3     1  UNL1        0.0369
     37 C          68.0690   94.4480    8.4041 C.3     1  UNL1        0.0738
     38 N          67.4401   95.8060    8.3029 N.3     1  UNL1       -0.2714
     39 C          68.0576   96.8550    7.4264 C.3     1  UNL1        0.0896
     40 C          66.1938   96.1150    9.0783 C.3     1  UNL1        0.0738
     41 C          65.5763   95.0660    9.9548 C.3     1  UNL1        0.0369
     42 O          61.7788   89.6383   13.6187 O.3     1  UNL1       -0.4702
     43 C          61.0888   90.0264   12.3446 C.3     1  UNL1        0.2525
@<TRIPOS>BOND
     1    19    20    1
     2     1    20    1
     3     1     2    1
     4     2     3   ar
     5     3    21    1
     6    21    22    3
     7     3     4   ar
     8     4     5   ar
     9     5     6   ar
    10     6     7    1
    11     7     8   ar
    12     8     9   ar
    13     9    10   ar
    14    10    23    1
    15    23    25    1
    16    25    26   ar
    17    26    27   ar
    18    27    28   ar
    19    28    31    1
    20    31    32    2
    21    31    33   am
    22    33    35    1
    23    35    36    1
    24    36    37    1
    25    37    38    1
    26    38    39    1
    27    38    40    1
    28    40    41    1
    29    28    29   ar
    30    29    30   ar
    31    30    42    1
    32    42    43    1
    33    10    11   ar
    34    11    12   ar
    35    12    13    1
    36    13    14    1
    37    14    15    1
    38    15    16    1
    39    16    17    1
    40    17    18    1
    41    13     1    1
    42    18    14    1
    43     6     2   ar
    44    12     7   ar
    45    30    25   ar
    46    41    35    1
    47    23    24    1
    48    33    34    1
@<TRIPOS>MOLECULE
*****
 43 48 0 0 0
SMALL
GASTEIGER

@<TRIPOS>ATOM
      1 C          62.8059   83.6235   11.9294 C.3     1  UNL1        0.1149
      2 C          63.0661   82.5494   12.9436 C.ar    1  UNL1        0.0883
      3 C          63.1424   81.0559   12.8268 C.ar    1  UNL1        0.1643
      4 N          63.4337   80.4987   14.1887 N.ar    1  UNL1       -0.2134
      5 C          63.5373   81.6478   15.1472 C.ar    1  UNL1        0.1833
      6 N          63.3101   82.9152   14.3777 N.ar    1  UNL1       -0.2854
      7 C          63.2940   84.3552   14.7976 C.ar    1  UNL1        0.1163
      8 C          63.5380   84.7210   16.2317 C.ar    1  UNL1        0.1221
      9 N          63.5218   86.1609   16.6515 N.ar    1  UNL1       -0.2104
     10 C          63.2616   87.2350   15.6374 C.ar    1  UNL1        0.2220
     11 N          63.0175   86.8692   14.2033 N.ar    1  UNL1       -0.1971
     12 C          63.0337   85.4293   13.7834 C.ar    1  UNL1        0.1526
     13 N          62.7897   85.0634   12.3493 N.pl3   1  UNL1       -0.2899
     14 C          62.5294   86.1375   11.3351 C.3     1  UNL1        0.0745
     15 C          62.6547   87.6147   11.5634 C.3     1  UNL1        0.0198
     16 C          62.3009   88.3132   10.2839 C.3     1  UNL1        0.0018
     17 C          61.9570   87.2676    9.2649 C.3     1  UNL1        0.0018
     18 C          62.0983   85.9230    9.9145 C.3     1  UNL1        0.0198
     19 C          63.7214   83.0020    9.5787 C.3     1  UNL1        0.0022
     20 C          62.5618   83.2576   10.4953 C.3     1  UNL1        0.0259
     21 C          62.9596   80.2594   11.5689 C.1     1  UNL1        0.1210
     22 N          62.7769   79.4629   10.3111 N.1     1  UNL1       -0.1892
     23 N          63.2454   88.6750   16.0573 N.pl3   1  UNL1       -0.2801
     24 H          62.8520   88.9310   16.9227 H       1  UNL1        0.1552
     25 C          63.8287   89.7249   15.1587 C.ar    1  UNL1        0.0849
     26 C          63.9566   89.4655   13.6868 C.ar    1  UNL1        0.0179
     27 C          64.5399   90.5155   12.7882 C.ar    1  UNL1        0.0060
     28 C          64.9952   91.8247   13.3615 C.ar    1  UNL1        0.0564
     29 C          64.8672   92.0840   14.8334 C.ar    1  UNL1        0.0427
     30 C          64.2840   91.0341   15.7319 C.ar    1  UNL1        0.1522
     31 C          65.5784   92.8746   12.4629 C.2     1  UNL1        0.2459
     32 O          66.1245   94.1434   13.0478 O.2     1  UNL1       -0.2701
     33 N          65.6157   92.6557   10.9794 N.am    1  UNL1       -0.3024
     34 H          65.2574   91.8230   10.5955 H       1  UNL1        0.1497
     35 C          66.1990   93.7057   10.0808 C.3     1  UNL1        0.0746
     36 C          65.5737   95.0675   10.0141 C.3     1  UNL1        0.0369
     37 C          66.1569   96.1174    9.1156 C.3     1  UNL1        0.0738
     38 N          67.3655   95.8056    8.2837 N.3     1  UNL1       -0.2714
     39 C          67.9487   96.8555    7.3851 C.3     1  UNL1        0.0896
     40 C          67.9908   94.4438    8.3504 C.3     1  UNL1        0.0738
     41 C          67.4076   93.3938    9.2490 C.3     1  UNL1        0.0369
     42 O          64.1560   91.2935   17.2038 O.3     1  UNL1       -0.4702
     43 C          64.4805   92.6492   17.7575 C.3     1  UNL1        0.2525
@<TRIPOS>BOND
     1    19    20    1
     2     1    20    1
     3     1     2    1
     4     2     3   ar
     5     3    21    1
     6    21    22    3
     7     3     4   ar
     8     4     5   ar
     9     5     6   ar
    10     6     7    1
    11     7     8   ar
    12     8     9   ar
    13     9    10   ar
    14    10    23    1
    15    23    25    1
    16    25    26   ar
    17    26    27   ar
    18    27    28   ar
    19    28    31    1
    20    31    32    2
    21    31    33   am
    22    33    35    1
    23    35    36    1
    24    36    37    1
    25    37    38    1
    26    38    39    1
    27    38    40    1
    28    40    41    1
    29    28    29   ar
    30    29    30   ar
    31    30    42    1
    32    42    43    1
    33    10    11   ar
    34    11    12   ar
    35    12    13    1
    36    13    14    1
    37    14    15    1
    38    15    16    1
    39    16    17    1
    40    17    18    1
    41    13     1    1
    42    18    14    1
    43     6     2   ar
    44    12     7   ar
    45    30    25   ar
    46    41    35    1
    47    23    24    1
    48    33    34    1
@<TRIPOS>MOLECULE
*****
 43 48 0 0 0
SMALL
GASTEIGER

@<TRIPOS>ATOM
      1 C          61.3852   94.3176   -2.1281 C.3     1  UNL1        0.1149
      2 C          62.7591   94.5639   -1.5786 C.ar    1  UNL1        0.0883
      3 C          64.0158   95.0819   -2.2128 C.ar    1  UNL1        0.1643
      4 N          65.0861   95.1135   -1.1624 N.ar    1  UNL1       -0.2134
      5 C          64.4909   94.6150    0.1210 C.ar    1  UNL1        0.1833
      6 N          63.0528   94.2753   -0.1362 N.ar    1  UNL1       -0.2854
      7 C          61.9726   93.7404    0.7567 C.ar    1  UNL1        0.1163
      8 C          62.2663   93.4519    2.1991 C.ar    1  UNL1        0.1221
      9 N          61.1862   92.9170    3.0919 N.ar    1  UNL1       -0.2104
     10 C          59.8123   92.6708    2.5424 C.ar    1  UNL1        0.2220
     11 N          59.5186   92.9594    1.1001 N.ar    1  UNL1       -0.1971
     12 C          60.5988   93.4942    0.2072 C.ar    1  UNL1        0.1526
     13 N          60.3051   93.7828   -1.2352 N.pl3   1  UNL1       -0.2899
     14 C          58.9313   93.5366   -1.7847 C.3     1  UNL1        0.0745
     15 C          57.6596   94.1610   -1.2919 C.3     1  UNL1        0.0198
     16 C          56.5302   93.6330   -2.1261 C.3     1  UNL1        0.0018
     17 C          57.1040   92.6823   -3.1345 C.3     1  UNL1        0.0018
     18 C          58.5879   92.6227   -2.9235 C.3     1  UNL1        0.0198
     19 C          60.5954   95.9618   -3.9782 C.3     1  UNL1        0.0022
     20 C          61.0916   94.6063   -3.5705 C.3     1  UNL1        0.0259
     21 C          64.1743   95.4958   -3.6459 C.1     1  UNL1        0.1210
     22 N          64.3328   95.9096   -5.0789 N.1     1  UNL1       -0.1892
     23 N          58.7322   92.1360    3.4353 N.pl3   1  UNL1       -0.2801
     24 H          57.7895   92.3527    3.2518 H       1  UNL1        0.1552
     25 C          59.0882   91.2709    4.6079 C.ar    1  UNL1        0.0849
     26 C          60.5268   91.0699    4.9822 C.ar    1  UNL1        0.0179
     27 C          60.8829   90.2048    6.1548 C.ar    1  UNL1        0.0060
     28 C          59.8004   89.5408    6.9530 C.ar    1  UNL1        0.0564
     29 C          58.3618   89.7419    6.5788 C.ar    1  UNL1        0.0427
     30 C          58.0057   90.6069    5.4062 C.ar    1  UNL1        0.1522
     31 C          60.1565   88.6758    8.1256 C.2     1  UNL1        0.2459
     32 O          59.4299   88.8409    9.4275 O.2     1  UNL1       -0.2701
     33 N          61.2391   87.6457    7.9963 N.am    1  UNL1       -0.3024
     34 H          61.7160   87.5373    7.1418 H       1  UNL1        0.1497
     35 C          61.5952   86.7806    9.1689 C.3     1  UNL1        0.0746
     36 C          61.1176   87.1463   10.5430 C.3     1  UNL1        0.0369
     37 C          61.4736   86.2813   11.7156 C.3     1  UNL1        0.0738
     38 N          62.3072   85.0507   11.5141 N.3     1  UNL1       -0.2714
     39 C          62.6633   84.1857   12.6867 C.3     1  UNL1        0.0896
     40 C          62.7849   84.6851   10.1400 C.3     1  UNL1        0.0738
     41 C          62.4288   85.5501    8.9674 C.3     1  UNL1        0.0369
     42 O          56.5671   90.8079    5.0320 O.3     1  UNL1       -0.4702
     43 C          56.0261   92.1951    4.8508 C.3     1  UNL1        0.2525
@<TRIPOS>BOND
     1    19    20    1
     2     1    20    1
     3     1     2    1
     4     2     3   ar
     5     3    21    1
     6    21    22    3
     7     3     4   ar
     8     4     5   ar
     9     5     6   ar
    10     6     7    1
    11     7     8   ar
    12     8     9   ar
    13     9    10   ar
    14    10    23    1
    15    23    25    1
    16    25    26   ar
    17    26    27   ar
    18    27    28   ar
    19    28    31    1
    20    31    32    2
    21    31    33   am
    22    33    35    1
    23    35    36    1
    24    36    37    1
    25    37    38    1
    26    38    39    1
    27    38    40    1
    28    40    41    1
    29    28    29   ar
    30    29    30   ar
    31    30    42    1
    32    42    43    1
    33    10    11   ar
    34    11    12   ar
    35    12    13    1
    36    13    14    1
    37    14    15    1
    38    15    16    1
    39    16    17    1
    40    17    18    1
    41    13     1    1
    42    18    14    1
    43     6     2   ar
    44    12     7   ar
    45    30    25   ar
    46    41    35    1
    47    23    24    1
    48    33    34    1
@<TRIPOS>MOLECULE
*****
 43 48 0 0 0
SMALL
GASTEIGER

@<TRIPOS>ATOM
      1 C          62.6627   83.0606   11.6973 C.3     1  UNL1        0.1149
      2 C          62.7608   81.8248   12.5417 C.ar    1  UNL1        0.0883
      3 C          62.7953   80.3675   12.1879 C.ar    1  UNL1        0.1643
      4 N          62.9020   79.5835   13.4623 N.ar    1  UNL1       -0.2134
      5 C          62.9335   80.5563   14.6037 C.ar    1  UNL1        0.1833
      6 N          62.8462   81.9414   14.0347 N.ar    1  UNL1       -0.2854
      7 C          62.8335   83.2939   14.6833 C.ar    1  UNL1        0.1163
      8 C          62.9189   83.4106   16.1763 C.ar    1  UNL1        0.1221
      9 N          62.9061   84.7630   16.8248 N.ar    1  UNL1       -0.2104
     10 C          62.8080   85.9989   15.9803 C.ar    1  UNL1        0.2220
     11 N          62.7226   85.8822   14.4874 N.ar    1  UNL1       -0.1971
     12 C          62.7354   84.5298   13.8388 C.ar    1  UNL1        0.1526
     13 N          62.6500   84.4131   12.3458 N.pl3   1  UNL1       -0.2899
     14 C          62.5518   85.6489   11.5013 C.3     1  UNL1        0.0745
     15 C          62.7340   87.0593   11.9781 C.3     1  UNL1        0.0198
     16 C          62.5491   87.9734   10.8033 C.3     1  UNL1        0.0018
     17 C          62.2525   87.1279    9.6003 C.3     1  UNL1        0.0018
     18 C          62.2542   85.6912   10.0317 C.3     1  UNL1        0.0198
     19 C          63.8183   83.0645    9.3703 C.3     1  UNL1        0.0022
     20 C          62.5773   82.9439   10.2042 C.3     1  UNL1        0.0259
     21 C          62.7339   79.7947   10.8029 C.1     1  UNL1        0.1210
     22 N          62.6724   79.2221    9.4179 N.1     1  UNL1       -0.1892
     23 N          62.7953   87.3514   16.6290 N.pl3   1  UNL1       -0.2801
     24 H          62.3819   87.4686   17.5148 H       1  UNL1        0.1552
     25 C          63.4122   88.5252   15.9279 C.ar    1  UNL1        0.0849
     26 C          63.0131   89.9203   16.3079 C.ar    1  UNL1        0.0179
     27 C          63.6302   91.0941   15.6068 C.ar    1  UNL1        0.0060
     28 C          64.6463   90.8728   14.5258 C.ar    1  UNL1        0.0564
     29 C          65.0454   89.4777   14.1458 C.ar    1  UNL1        0.0427
     30 C          64.4284   88.3039   14.8469 C.ar    1  UNL1        0.1522
     31 C          65.2632   92.0466   13.8248 C.2     1  UNL1        0.2459
     32 O          65.9393   93.1244   14.6195 O.2     1  UNL1       -0.2701
     33 N          65.2042   92.1427   12.3290 N.am    1  UNL1       -0.3024
     34 H          64.7606   91.4354   11.8074 H       1  UNL1        0.1497
     35 C          65.8213   93.3166   11.6280 C.3     1  UNL1        0.0746
     36 C          65.8394   94.6617   12.2915 C.3     1  UNL1        0.0369
     37 C          66.4563   95.8356   11.5906 C.3     1  UNL1        0.0738
     38 N          67.0552   95.6643   10.2261 N.3     1  UNL1       -0.2714
     39 C          67.6722   96.8382    9.5250 C.3     1  UNL1        0.0896
     40 C          67.0371   94.3192    9.5625 C.3     1  UNL1        0.0738
     41 C          66.4201   93.1453   10.2634 C.3     1  UNL1        0.0369
     42 O          64.8275   86.9088   14.4669 O.3     1  UNL1       -0.4702
     43 C          65.9606   86.2323   15.1800 C.3     1  UNL1        0.2525
@<TRIPOS>BOND
     1    19    20    1
     2     1    20    1
     3     1     2    1
     4     2     3   ar
     5     3    21    1
     6    21    22    3
     7     3     4   ar
     8     4     5   ar
     9     5     6   ar
    10     6     7    1
    11     7     8   ar
    12     8     9   ar
    13     9    10   ar
    14    10    23    1
    15    23    25    1
    16    25    26   ar
    17    26    27   ar
    18    27    28   ar
    19    28    31    1
    20    31    32    2
    21    31    33   am
    22    33    35    1
    23    35    36    1
    24    36    37    1
    25    37    38    1
    26    38    39    1
    27    38    40    1
    28    40    41    1
    29    28    29   ar
    30    29    30   ar
    31    30    42    1
    32    42    43    1
    33    10    11   ar
    34    11    12   ar
    35    12    13    1
    36    13    14    1
    37    14    15    1
    38    15    16    1
    39    16    17    1
    40    17    18    1
    41    13     1    1
    42    18    14    1
    43     6     2   ar
    44    12     7   ar
    45    30    25   ar
    46    41    35    1
    47    23    24    1
    48    33    34    1
