@<TRIPOS>MOLECULE
*****
 30 34 0 0 0
SMALL
GASTEIGER

@<TRIPOS>ATOM
      1 O          58.5205   92.3570    4.1406 O.2     1  UNL1       -0.2526
      2 C          59.9641   91.9643    4.0300 C.2     1  UNL1        0.3039
      3 N          60.5103   90.8649    4.8918 N.am    1  UNL1       -0.2901
      4 N          60.8612   92.6712    3.0577 N.am    1  UNL1       -0.2642
      5 C          60.3149   93.7707    2.1959 C.3     1  UNL1        0.0954
      6 C          61.2120   94.4775    1.2235 C.3     1  UNL1        0.0309
      7 C          62.6556   94.0849    1.1130 C.3     1  UNL1        0.0827
      8 C          63.2018   92.9854    1.9748 C.3     1  UNL1        0.0309
      9 C          62.3047   92.2786    2.9471 C.3     1  UNL1        0.0954
     10 H          61.4577   90.6072    4.8193 H       1  UNL1        0.1509
     11 C          63.5527   94.7917    0.1406 C.ar    1  UNL1        0.2363
     12 N          63.6114   94.5528   -1.3391 N.ar    1  UNL1       -0.1882
     13 C          64.6437   95.4750   -1.9170 C.ar    1  UNL1        0.2393
     14 N          65.2230   96.2839   -0.7944 N.ar    1  UNL1       -0.0528
     15 O          64.5488   95.8615    0.4772 O.2     1  UNL1       -0.3369
     16 C          65.0289   95.5714   -3.3634 C.ar    1  UNL1        0.2023
     17 N          64.6407   94.4808   -4.3172 N.ar    1  UNL1       -0.2223
     18 C          65.0259   94.5771   -5.7637 C.ar    1  UNL1        0.1023
     19 C          65.7994   95.7641   -6.2564 C.ar    1  UNL1        0.0414
     20 C          66.1876   96.8547   -5.3026 C.ar    1  UNL1        0.1023
     21 N          65.8023   96.7584   -3.8561 N.ar    1  UNL1       -0.2223
     22 C          59.6132   90.1580    5.8642 C.3     1  UNL1        0.0774
     23 C          58.2362   89.7734    6.3180 C.3     1  UNL1        0.0259
     24 C          59.4362   89.3185    7.0945 C.3     1  UNL1        0.0420
     25 C          60.0270   88.5711    8.2532 C.ar    1  UNL1       -0.0208
     26 C          60.1758   87.0800    8.1865 C.ar    1  UNL1       -0.0042
     27 C          60.7665   86.3327    9.3451 C.ar    1  UNL1       -0.0003
     28 C          61.2083   87.0764   10.5705 C.ar    1  UNL1       -0.0000
     29 C          61.0595   88.5675   10.6373 C.ar    1  UNL1       -0.0003
     30 C          60.4688   89.3148    9.4786 C.ar    1  UNL1       -0.0042
@<TRIPOS>BOND
     1     1     2    2
     2     2     3   am
     3     3    22    1
     4    22    23    1
     5    23    24    1
     6    24    25    1
     7    25    26   ar
     8    26    27   ar
     9    27    28   ar
    10    28    29   ar
    11    29    30   ar
    12     2     4   am
    13     4     5    1
    14     5     6    1
    15     6     7    1
    16     7    11    1
    17    11    12   ar
    18    12    13   ar
    19    13    16    1
    20    16    17   ar
    21    17    18   ar
    22    18    19   ar
    23    19    20   ar
    24    20    21   ar
    25    13    14   ar
    26    14    15   ar
    27     7     8    1
    28     8     9    1
    29    24    22    1
    30    30    25   ar
    31     9     4    1
    32    15    11   ar
    33    21    16   ar
    34     3    10    1
@<TRIPOS>MOLECULE
*****
 30 34 0 0 0
SMALL
GASTEIGER

@<TRIPOS>ATOM
      1 O          64.4469   93.1548   10.8278 O.2     1  UNL1       -0.2526
      2 C          65.0095   92.7376   12.1543 C.2     1  UNL1        0.3039
      3 N          65.8798   93.6813   12.9301 N.am    1  UNL1       -0.2901
      4 N          64.7018   91.3766   12.7049 N.am    1  UNL1       -0.2642
      5 C          63.8315   90.4329   11.9289 C.3     1  UNL1        0.0954
      6 C          63.5238   89.0719   12.4795 C.3     1  UNL1        0.0309
      7 C          64.0864   88.6547   13.8060 C.3     1  UNL1        0.0827
      8 C          64.9567   89.5984   14.5818 C.3     1  UNL1        0.0309
      9 C          65.2644   90.9594   14.0313 C.3     1  UNL1        0.0954
     10 H          66.2490   93.4074   13.8007 H       1  UNL1        0.1509
     11 C          63.7787   87.2938   14.3565 C.ar    1  UNL1        0.2363
     12 N          63.6180   86.0348   13.5570 N.ar    1  UNL1       -0.1882
     13 C          63.3176   84.9158   14.5096 C.ar    1  UNL1        0.2393
     14 N          63.2927   85.4831   15.8980 N.ar    1  UNL1       -0.0528
     15 O          63.5776   86.9527   15.8034 O.2     1  UNL1       -0.3369
     16 C          63.0833   83.4813   14.1389 C.ar    1  UNL1        0.2023
     17 N          61.8745   82.7605   14.6577 N.ar    1  UNL1       -0.2223
     18 C          61.6401   81.3260   14.2871 C.ar    1  UNL1        0.1023
     19 C          62.6146   80.6124   13.3976 C.ar    1  UNL1        0.0414
     20 C          63.8234   81.3332   12.8788 C.ar    1  UNL1        0.1023
     21 N          64.0577   82.7678   13.2495 N.ar    1  UNL1       -0.2223
     22 C          66.1875   95.0422   12.3796 C.3     1  UNL1        0.0774
     23 C          66.6290   96.4600   12.5918 C.3     1  UNL1        0.0259
     24 C          66.2790   95.9817   11.2138 C.3     1  UNL1        0.0420
     25 C          66.1296   96.2479    9.7452 C.ar    1  UNL1       -0.0208
     26 C          67.3264   96.1733    8.8439 C.ar    1  UNL1       -0.0042
     27 C          67.1770   96.4395    7.3754 C.ar    1  UNL1       -0.0003
     28 C          65.8309   96.7804    6.8080 C.ar    1  UNL1       -0.0000
     29 C          64.6342   96.8551    7.7092 C.ar    1  UNL1       -0.0003
     30 C          64.7836   96.5888    9.1778 C.ar    1  UNL1       -0.0042
@<TRIPOS>BOND
     1     1     2    2
     2     2     3   am
     3     3    22    1
     4    22    23    1
     5    23    24    1
     6    24    25    1
     7    25    26   ar
     8    26    27   ar
     9    27    28   ar
    10    28    29   ar
    11    29    30   ar
    12     2     4   am
    13     4     5    1
    14     5     6    1
    15     6     7    1
    16     7    11    1
    17    11    12   ar
    18    12    13   ar
    19    13    16    1
    20    16    17   ar
    21    17    18   ar
    22    18    19   ar
    23    19    20   ar
    24    20    21   ar
    25    13    14   ar
    26    14    15   ar
    27     7     8    1
    28     8     9    1
    29    24    22    1
    30    30    25   ar
    31     9     4    1
    32    15    11   ar
    33    21    16   ar
    34     3    10    1
@<TRIPOS>MOLECULE
*****
 30 34 0 0 0
SMALL
GASTEIGER

@<TRIPOS>ATOM
      1 O          61.8811   87.3111   11.6920 O.2     1  UNL1       -0.2526
      2 C          61.4736   86.7324   10.3694 C.2     1  UNL1        0.3039
      3 N          61.6387   85.2643   10.1102 N.am    1  UNL1       -0.2901
      4 N          60.9011   87.6220    9.3060 N.am    1  UNL1       -0.2642
      5 C          60.7360   89.0903    9.5652 C.3     1  UNL1        0.0954
      6 C          60.1635   89.9798    8.5018 C.3     1  UNL1        0.0309
      7 C          59.7560   89.4012    7.1792 C.3     1  UNL1        0.0827
      8 C          59.9211   87.9330    6.9200 C.3     1  UNL1        0.0309
      9 C          60.4936   87.0434    7.9834 C.3     1  UNL1        0.0954
     10 H          61.3712   84.8845    9.2422 H       1  UNL1        0.1509
     11 C          59.1835   90.2908    6.1158 C.ar    1  UNL1        0.2363
     12 N          59.9685   91.0995    5.1260 N.ar    1  UNL1       -0.1882
     13 C          58.9956   91.8364    4.2539 C.ar    1  UNL1        0.2393
     14 N          57.6092   91.4831    4.7047 N.ar    1  UNL1       -0.0528
     15 O          57.7254   90.5279    5.8554 O.2     1  UNL1       -0.3369
     16 C          59.3473   92.7638    3.1286 C.ar    1  UNL1        0.2023
     17 N          60.0162   94.0747    3.4183 N.ar    1  UNL1       -0.2223
     18 C          60.3679   95.0022    2.2931 C.ar    1  UNL1        0.1023
     19 C          60.0508   94.6186    0.8781 C.ar    1  UNL1        0.0414
     20 C          59.3819   93.3076    0.5883 C.ar    1  UNL1        0.1023
     21 N          59.0301   92.3802    1.7137 N.ar    1  UNL1       -0.2223
     22 C          62.2112   84.3747   11.1736 C.3     1  UNL1        0.0774
     23 C          62.6991   83.0270   11.6159 C.3     1  UNL1        0.0259
     24 C          62.7149   84.1816   12.5732 C.3     1  UNL1        0.0420
     25 C          63.0149   84.7368   13.9341 C.ar    1  UNL1       -0.0208
     26 C          62.1604   84.3531   15.1057 C.ar    1  UNL1       -0.0042
     27 C          62.4603   84.9083   16.4664 C.ar    1  UNL1       -0.0003
     28 C          63.6148   85.8471   16.6557 C.ar    1  UNL1       -0.0000
     29 C          64.4693   86.2308   15.4841 C.ar    1  UNL1       -0.0003
     30 C          64.1693   85.6756   14.1233 C.ar    1  UNL1       -0.0042
@<TRIPOS>BOND
     1     1     2    2
     2     2     3   am
     3     3    22    1
     4    22    23    1
     5    23    24    1
     6    24    25    1
     7    25    26   ar
     8    26    27   ar
     9    27    28   ar
    10    28    29   ar
    11    29    30   ar
    12     2     4   am
    13     4     5    1
    14     5     6    1
    15     6     7    1
    16     7    11    1
    17    11    12   ar
    18    12    13   ar
    19    13    16    1
    20    16    17   ar
    21    17    18   ar
    22    18    19   ar
    23    19    20   ar
    24    20    21   ar
    25    13    14   ar
    26    14    15   ar
    27     7     8    1
    28     8     9    1
    29    24    22    1
    30    30    25   ar
    31     9     4    1
    32    15    11   ar
    33    21    16   ar
    34     3    10    1
@<TRIPOS>MOLECULE
*****
 30 34 0 0 0
SMALL
GASTEIGER

@<TRIPOS>ATOM
      1 O          64.8601   92.7262   15.7394 O.2     1  UNL1       -0.2526
      2 C          65.0107   91.6888   14.6664 C.2     1  UNL1        0.3039
      3 N          65.6499   92.0499   13.3584 N.am    1  UNL1       -0.2901
      4 N          64.5219   90.2903   14.9015 N.am    1  UNL1       -0.2642
      5 C          63.8826   89.9292   16.2096 C.3     1  UNL1        0.0954
      6 C          63.3938   88.5307   16.4448 C.3     1  UNL1        0.0309
      7 C          63.5444   87.4932   15.3718 C.3     1  UNL1        0.0827
      8 C          64.1836   87.8543   14.0638 C.3     1  UNL1        0.0309
      9 C          64.6724   89.2529   13.8287 C.3     1  UNL1        0.0954
     10 H          65.7487   91.3690   12.6542 H       1  UNL1        0.1509
     11 C          63.0556   86.0947   15.6069 C.ar    1  UNL1        0.2363
     12 N          63.1420   84.9554   14.6350 N.ar    1  UNL1       -0.1882
     13 C          62.5344   83.7465   15.2827 C.ar    1  UNL1        0.2393
     14 N          62.0725   84.1387   16.6548 N.ar    1  UNL1       -0.0528
     15 O          62.3946   85.5899   16.8552 O.2     1  UNL1       -0.3369
     16 C          62.4105   82.3847   14.6663 C.ar    1  UNL1        0.2023
     17 N          61.0650   81.7311   14.5558 N.ar    1  UNL1       -0.2223
     18 C          60.9409   80.3692   13.9395 C.ar    1  UNL1        0.1023
     19 C          62.1626   79.6609   13.4336 C.ar    1  UNL1        0.0414
     20 C          63.5082   80.3144   13.5441 C.ar    1  UNL1        0.1023
     21 N          63.6321   81.6764   14.1605 N.ar    1  UNL1       -0.2223
     22 C          66.1387   93.4484   13.1233 C.3     1  UNL1        0.0774
     23 C          66.6939   94.7368   13.6539 C.3     1  UNL1        0.0259
     24 C          66.4300   94.5822   12.1855 C.3     1  UNL1        0.0420
     25 C          66.4459   95.1475   10.7961 C.ar    1  UNL1       -0.0208
     26 C          67.3697   94.5733    9.7633 C.ar    1  UNL1       -0.0042
     27 C          67.3855   95.1386    8.3740 C.ar    1  UNL1       -0.0003
     28 C          66.4775   96.2781    8.0175 C.ar    1  UNL1       -0.0000
     29 C          65.5537   96.8522    9.0504 C.ar    1  UNL1       -0.0003
     30 C          65.5378   96.2869   10.4396 C.ar    1  UNL1       -0.0042
@<TRIPOS>BOND
     1     1     2    2
     2     2     3   am
     3     3    22    1
     4    22    23    1
     5    23    24    1
     6    24    25    1
     7    25    26   ar
     8    26    27   ar
     9    27    28   ar
    10    28    29   ar
    11    29    30   ar
    12     2     4   am
    13     4     5    1
    14     5     6    1
    15     6     7    1
    16     7    11    1
    17    11    12   ar
    18    12    13   ar
    19    13    16    1
    20    16    17   ar
    21    17    18   ar
    22    18    19   ar
    23    19    20   ar
    24    20    21   ar
    25    13    14   ar
    26    14    15   ar
    27     7     8    1
    28     8     9    1
    29    24    22    1
    30    30    25   ar
    31     9     4    1
    32    15    11   ar
    33    21    16   ar
    34     3    10    1
@<TRIPOS>MOLECULE
*****
 30 34 0 0 0
SMALL
GASTEIGER

@<TRIPOS>ATOM
      1 O          64.6495   93.9533   -0.3638 O.2     1  UNL1       -0.2526
      2 C          63.1663   94.1552   -0.2675 C.2     1  UNL1        0.3039
      3 N          62.4555   94.9926   -1.2890 N.am    1  UNL1       -0.2901
      4 N          62.3938   93.5195    0.8502 N.am    1  UNL1       -0.2642
      5 C          63.1047   92.6820    1.8717 C.3     1  UNL1        0.0954
      6 C          62.3323   92.0464    2.9894 C.3     1  UNL1        0.0309
      7 C          60.8490   92.2483    3.0857 C.3     1  UNL1        0.0827
      8 C          60.1382   93.0858    2.0642 C.3     1  UNL1        0.0309
      9 C          60.9106   93.7214    0.9465 C.3     1  UNL1        0.0954
     10 H          61.4820   95.1251   -1.2258 H       1  UNL1        0.1509
     11 C          60.0766   91.6127    4.2034 C.ar    1  UNL1        0.2363
     12 N          60.6000   90.5880    5.1657 N.ar    1  UNL1       -0.1882
     13 C          59.4920   90.2321    6.1121 C.ar    1  UNL1        0.2393
     14 N          58.2837   91.0369    5.7348 N.ar    1  UNL1       -0.0528
     15 O          58.6450   91.8901    4.5551 O.2     1  UNL1       -0.3369
     16 C          59.5774   89.2449    7.2382 C.ar    1  UNL1        0.2023
     17 N          60.2620   89.6242    8.5178 N.ar    1  UNL1       -0.2223
     18 C          60.3474   88.6370    9.6440 C.ar    1  UNL1        0.1023
     19 C          59.7482   87.2705    9.4905 C.ar    1  UNL1        0.0414
     20 C          59.0636   86.8912    8.2108 C.ar    1  UNL1        0.1023
     21 N          58.9782   87.8785    7.0847 N.ar    1  UNL1       -0.2223
     22 C          63.2279   95.6283   -2.4067 C.3     1  UNL1        0.0774
     23 C          63.7747   96.8551   -3.0744 C.3     1  UNL1        0.0259
     24 C          64.0189   95.5024   -3.6749 C.3     1  UNL1        0.0420
     25 C          64.6167   94.6487   -4.7538 C.ar    1  UNL1       -0.0208
     26 C          65.3818   95.2849   -5.8761 C.ar    1  UNL1       -0.0042
     27 C          65.9795   94.4312   -6.9550 C.ar    1  UNL1       -0.0003
     28 C          65.8120   92.9413   -6.9115 C.ar    1  UNL1       -0.0000
     29 C          65.0469   92.3050   -5.7892 C.ar    1  UNL1       -0.0003
     30 C          64.4492   93.1587   -4.7103 C.ar    1  UNL1       -0.0042
@<TRIPOS>BOND
     1     1     2    2
     2     2     3   am
     3     3    22    1
     4    22    23    1
     5    23    24    1
     6    24    25    1
     7    25    26   ar
     8    26    27   ar
     9    27    28   ar
    10    28    29   ar
    11    29    30   ar
    12     2     4   am
    13     4     5    1
    14     5     6    1
    15     6     7    1
    16     7    11    1
    17    11    12   ar
    18    12    13   ar
    19    13    16    1
    20    16    17   ar
    21    17    18   ar
    22    18    19   ar
    23    19    20   ar
    24    20    21   ar
    25    13    14   ar
    26    14    15   ar
    27     7     8    1
    28     8     9    1
    29    24    22    1
    30    30    25   ar
    31     9     4    1
    32    15    11   ar
    33    21    16   ar
    34     3    10    1
@<TRIPOS>MOLECULE
*****
 30 34 0 0 0
SMALL
GASTEIGER

@<TRIPOS>ATOM
      1 O          62.3581   88.1480   12.0405 O.2     1  UNL1       -0.2526
      2 C          61.8049   87.3922   10.8688 C.2     1  UNL1        0.3039
      3 N          61.8749   85.8941   10.8419 N.am    1  UNL1       -0.2901
      4 N          61.1818   88.1345    9.7239 N.am    1  UNL1       -0.2642
      5 C          61.1119   89.6327    9.7508 C.3     1  UNL1        0.0954
      6 C          60.4888   90.3751    8.6059 C.3     1  UNL1        0.0309
      7 C          59.9356   89.6192    7.4342 C.3     1  UNL1        0.0827
      8 C          60.0056   88.1211    7.4074 C.3     1  UNL1        0.0309
      9 C          60.6287   87.3788    8.5522 C.3     1  UNL1        0.0954
     10 H          61.5119   85.3980   10.0729 H       1  UNL1        0.1509
     11 C          59.3125   90.3616    6.2894 C.ar    1  UNL1        0.2363
     12 N          60.0387   91.2156    5.2927 N.ar    1  UNL1       -0.1882
     13 C          59.0288   91.7621    4.3275 C.ar    1  UNL1        0.2393
     14 N          57.6785   91.2458    4.7277 N.ar    1  UNL1       -0.0528
     15 O          57.8539   90.3802    5.9402 O.2     1  UNL1       -0.3369
     16 C          59.3184   92.6661    3.1662 C.ar    1  UNL1        0.2023
     17 N          58.8991   92.2671    1.7824 N.ar    1  UNL1       -0.2223
     18 C          59.1886   93.1711    0.6209 C.ar    1  UNL1        0.1023
     19 C          59.8976   94.4741    0.8433 C.ar    1  UNL1        0.0414
     20 C          60.3170   94.8731    2.2271 C.ar    1  UNL1        0.1023
     21 N          60.0274   93.9691    3.3886 N.ar    1  UNL1       -0.2223
     22 C          62.4980   85.1517   11.9868 C.3     1  UNL1        0.0774
     23 C          63.3512   85.1456   13.2204 C.3     1  UNL1        0.0259
     24 C          62.7240   83.8721   12.7360 C.3     1  UNL1        0.0420
     25 C          62.4924   82.3979   12.8888 C.ar    1  UNL1       -0.0208
     26 C          62.9964   81.4472   11.8438 C.ar    1  UNL1       -0.0042
     27 C          62.7648   79.9731   11.9967 C.ar    1  UNL1       -0.0003
     28 C          62.0291   79.4498   13.1946 C.ar    1  UNL1       -0.0000
     29 C          61.5251   80.4005   14.2396 C.ar    1  UNL1       -0.0003
     30 C          61.7567   81.8746   14.0867 C.ar    1  UNL1       -0.0042
@<TRIPOS>BOND
     1     1     2    2
     2     2     3   am
     3     3    22    1
     4    22    23    1
     5    23    24    1
     6    24    25    1
     7    25    26   ar
     8    26    27   ar
     9    27    28   ar
    10    28    29   ar
    11    29    30   ar
    12     2     4   am
    13     4     5    1
    14     5     6    1
    15     6     7    1
    16     7    11    1
    17    11    12   ar
    18    12    13   ar
    19    13    16    1
    20    16    17   ar
    21    17    18   ar
    22    18    19   ar
    23    19    20   ar
    24    20    21   ar
    25    13    14   ar
    26    14    15   ar
    27     7     8    1
    28     8     9    1
    29    24    22    1
    30    30    25   ar
    31     9     4    1
    32    15    11   ar
    33    21    16   ar
    34     3    10    1
@<TRIPOS>MOLECULE
*****
 30 34 0 0 0
SMALL
GASTEIGER

@<TRIPOS>ATOM
      1 O          63.9204   91.1071   12.1773 O.2     1  UNL1       -0.2526
      2 C          64.5027   90.2054   13.2252 C.2     1  UNL1        0.3039
      3 N          65.4689   90.7532   14.2333 N.am    1  UNL1       -0.2901
      4 N          64.1186   88.7560   13.2650 N.am    1  UNL1       -0.2642
      5 C          63.1523   88.2082   12.2569 C.3     1  UNL1        0.0954
      6 C          62.7682   86.7587   12.2967 C.3     1  UNL1        0.0309
      7 C          63.3505   85.8571   13.3446 C.3     1  UNL1        0.0827
      8 C          64.3168   86.4049   14.3526 C.3     1  UNL1        0.0309
      9 C          64.7008   87.8543   14.3128 C.3     1  UNL1        0.0954
     10 H          65.8511   90.1614   14.9210 H       1  UNL1        0.1509
     11 C          62.9664   84.4076   13.3844 C.ar    1  UNL1        0.2363
     12 N          63.1909   83.4057   12.2909 N.ar    1  UNL1       -0.1882
     13 C          62.6537   82.0844   12.7553 C.ar    1  UNL1        0.2393
     14 N          62.0972   82.2698   14.1359 N.ar    1  UNL1       -0.0528
     15 O          62.2905   83.7056   14.5247 O.2     1  UNL1       -0.3369
     16 C          62.6701   80.8028   11.9760 C.ar    1  UNL1        0.2023
     17 N          62.9485   80.8248   10.5023 N.ar    1  UNL1       -0.2223
     18 C          62.9649   79.5433    9.7228 C.ar    1  UNL1        0.1023
     19 C          62.7030   78.2398   10.4173 C.ar    1  UNL1        0.0414
     20 C          62.4246   78.2178   11.8911 C.ar    1  UNL1        0.1023
     21 N          62.4082   79.4994   12.6705 N.ar    1  UNL1       -0.2223
     22 C          65.8530   92.2027   14.1935 C.3     1  UNL1        0.0774
     23 C          66.1898   93.4774   14.9087 C.3     1  UNL1        0.0259
     24 C          66.1814   93.4384   13.4093 C.3     1  UNL1        0.0420
     25 C          66.3661   94.1294   12.0907 C.ar    1  UNL1       -0.0208
     26 C          66.1873   95.6154   11.9912 C.ar    1  UNL1       -0.0042
     27 C          66.3720   96.3063   10.6727 C.ar    1  UNL1       -0.0003
     28 C          66.7356   95.5113    9.4538 C.ar    1  UNL1       -0.0000
     29 C          66.9143   94.0254    9.5533 C.ar    1  UNL1       -0.0003
     30 C          66.7296   93.3344   10.8718 C.ar    1  UNL1       -0.0042
@<TRIPOS>BOND
     1     1     2    2
     2     2     3   am
     3     3    22    1
     4    22    23    1
     5    23    24    1
     6    24    25    1
     7    25    26   ar
     8    26    27   ar
     9    27    28   ar
    10    28    29   ar
    11    29    30   ar
    12     2     4   am
    13     4     5    1
    14     5     6    1
    15     6     7    1
    16     7    11    1
    17    11    12   ar
    18    12    13   ar
    19    13    16    1
    20    16    17   ar
    21    17    18   ar
    22    18    19   ar
    23    19    20   ar
    24    20    21   ar
    25    13    14   ar
    26    14    15   ar
    27     7     8    1
    28     8     9    1
    29    24    22    1
    30    30    25   ar
    31     9     4    1
    32    15    11   ar
    33    21    16   ar
    34     3    10    1
@<TRIPOS>MOLECULE
*****
 30 34 0 0 0
SMALL
GASTEIGER

@<TRIPOS>ATOM
      1 O          58.2262   88.8863    5.9426 O.2     1  UNL1       -0.2526
      2 C          59.4090   89.4529    6.6707 C.2     1  UNL1        0.3039
      3 N          59.9595   90.7921    6.2792 N.am    1  UNL1       -0.2901
      4 N          60.0412   88.6802    7.7902 N.am    1  UNL1       -0.2642
      5 C          59.4906   87.3409    8.1816 C.3     1  UNL1        0.0954
      6 C          60.1228   86.5681    9.3011 C.3     1  UNL1        0.0309
      7 C          61.3056   87.1348   10.0291 C.3     1  UNL1        0.0827
      8 C          61.8561   88.4740    9.6377 C.3     1  UNL1        0.0309
      9 C          61.2239   89.2467    8.5182 C.3     1  UNL1        0.0954
     10 H          60.7358   91.1640    6.7571 H       1  UNL1        0.1509
     11 C          61.9378   86.3620   11.1486 C.ar    1  UNL1        0.2363
     12 N          61.9065   84.8721   11.3192 N.ar    1  UNL1       -0.1882
     13 C          62.6617   84.5328   12.5701 C.ar    1  UNL1        0.2393
     14 N          63.1596   85.8131   13.1726 N.ar    1  UNL1       -0.0528
     15 O          62.7123   86.9436   12.2940 O.2     1  UNL1       -0.3369
     16 C          62.8804   83.1552   13.1216 C.ar    1  UNL1        0.2023
     17 N          64.2364   82.5196   13.0361 N.ar    1  UNL1       -0.2223
     18 C          64.4553   81.1420   13.5876 C.ar    1  UNL1        0.1023
     19 C          63.3180   80.3998   14.2247 C.ar    1  UNL1        0.0414
     20 C          61.9620   81.0354   14.3103 C.ar    1  UNL1        0.1023
     21 N          61.7432   82.4131   13.7587 N.ar    1  UNL1       -0.2223
     22 C          59.3273   91.5649    5.1598 C.3     1  UNL1        0.0774
     23 C          58.1097   92.1629    4.5196 C.3     1  UNL1        0.0259
     24 C          59.4499   92.3052    3.8610 C.3     1  UNL1        0.0420
     25 C          60.2945   92.8148    2.7309 C.ar    1  UNL1       -0.0208
     26 C          61.7629   92.5111    2.6959 C.ar    1  UNL1       -0.0042
     27 C          62.6074   93.0207    1.5658 C.ar    1  UNL1       -0.0003
     28 C          61.9834   93.8340    0.4707 C.ar    1  UNL1       -0.0000
     29 C          60.5149   94.1377    0.5057 C.ar    1  UNL1       -0.0003
     30 C          59.6704   93.6281    1.6358 C.ar    1  UNL1       -0.0042
@<TRIPOS>BOND
     1     1     2    2
     2     2     3   am
     3     3    22    1
     4    22    23    1
     5    23    24    1
     6    24    25    1
     7    25    26   ar
     8    26    27   ar
     9    27    28   ar
    10    28    29   ar
    11    29    30   ar
    12     2     4   am
    13     4     5    1
    14     5     6    1
    15     6     7    1
    16     7    11    1
    17    11    12   ar
    18    12    13   ar
    19    13    16    1
    20    16    17   ar
    21    17    18   ar
    22    18    19   ar
    23    19    20   ar
    24    20    21   ar
    25    13    14   ar
    26    14    15   ar
    27     7     8    1
    28     8     9    1
    29    24    22    1
    30    30    25   ar
    31     9     4    1
    32    15    11   ar
    33    21    16   ar
    34     3    10    1
@<TRIPOS>MOLECULE
*****
 30 34 0 0 0
SMALL
GASTEIGER

@<TRIPOS>ATOM
      1 O          57.8419   90.0630    5.8853 O.2     1  UNL1       -0.2526
      2 C          59.3097   90.2994    5.6859 C.2     1  UNL1        0.3039
      3 N          60.3090   89.5683    6.5325 N.am    1  UNL1       -0.2901
      4 N          59.7782   91.2669    4.6397 N.am    1  UNL1       -0.2642
      5 C          58.7788   91.9981    3.7930 C.3     1  UNL1        0.0954
      6 C          59.2473   92.9656    2.7469 C.3     1  UNL1        0.0309
      7 C          60.7151   93.2020    2.5475 C.3     1  UNL1        0.0827
      8 C          61.7144   92.4709    3.3942 C.3     1  UNL1        0.0309
      9 C          61.2459   91.5034    4.4403 C.3     1  UNL1        0.0954
     10 H          61.2723   89.7234    6.4016 H       1  UNL1        0.1509
     11 C          61.1836   94.1696    1.5014 C.ar    1  UNL1        0.2363
     12 N          62.5932   94.3257    1.0127 N.ar    1  UNL1       -0.1882
     13 C          62.6055   95.4035   -0.0304 C.ar    1  UNL1        0.2393
     14 N          61.2036   95.9136   -0.1865 N.ar    1  UNL1       -0.0528
     15 O          60.3248   95.1509    0.7602 O.2     1  UNL1       -0.3369
     16 C          63.8086   95.8865   -0.7850 C.ar    1  UNL1        0.2023
     17 N          65.0163   96.3719   -0.0395 N.ar    1  UNL1       -0.2223
     18 C          66.2195   96.8549   -0.7940 C.ar    1  UNL1        0.1023
     19 C          66.2148   96.8524   -2.2940 C.ar    1  UNL1        0.0414
     20 C          65.0071   96.3670   -3.0394 C.ar    1  UNL1        0.1023
     21 N          63.8039   95.8840   -2.2849 N.ar    1  UNL1       -0.2223
     22 C          59.8405   88.6007    7.5787 C.3     1  UNL1        0.0774
     23 C          58.7375   88.0315    8.4209 C.3     1  UNL1        0.0259
     24 C          60.1321   87.4941    8.5483 C.3     1  UNL1        0.0420
     25 C          61.1057   86.5449    9.1818 C.ar    1  UNL1       -0.0208
     26 C          61.1033   86.3497   10.6690 C.ar    1  UNL1       -0.0042
     27 C          62.0769   85.4006   11.3024 C.ar    1  UNL1       -0.0003
     28 C          63.0528   84.6465   10.4486 C.ar    1  UNL1       -0.0000
     29 C          63.0551   84.8417    8.9613 C.ar    1  UNL1       -0.0003
     30 C          62.0816   85.7908    8.3280 C.ar    1  UNL1       -0.0042
@<TRIPOS>BOND
     1     1     2    2
     2     2     3   am
     3     3    22    1
     4    22    23    1
     5    23    24    1
     6    24    25    1
     7    25    26   ar
     8    26    27   ar
     9    27    28   ar
    10    28    29   ar
    11    29    30   ar
    12     2     4   am
    13     4     5    1
    14     5     6    1
    15     6     7    1
    16     7    11    1
    17    11    12   ar
    18    12    13   ar
    19    13    16    1
    20    16    17   ar
    21    17    18   ar
    22    18    19   ar
    23    19    20   ar
    24    20    21   ar
    25    13    14   ar
    26    14    15   ar
    27     7     8    1
    28     8     9    1
    29    24    22    1
    30    30    25   ar
    31     9     4    1
    32    15    11   ar
    33    21    16   ar
    34     3    10    1
