@<TRIPOS>MOLECULE
*****
 26 27 0 0 0
SMALL
GASTEIGER

@<TRIPOS>ATOM
      1 C          63.4998   90.1457   16.4702 C.3     1  UNL1        0.0527
      2 C          63.4458   90.2774   14.9770 C.ar    1  UNL1        0.0673
      3 N          62.3815   89.7175   14.0805 N.ar    1  UNL1       -0.2283
      4 C          62.7245   90.0863   12.6675 C.ar    1  UNL1        0.1652
      5 S          64.0008   90.8740   12.6908 S.2     1  UNL1       -0.0517
      6 C          64.4465   90.9922   14.1182 C.ar    1  UNL1        0.0471
      7 C          65.6771   91.7007   14.6018 C.ar    1  UNL1        0.0265
      8 C          66.9297   91.6760   13.7770 C.ar    1  UNL1        0.0049
      9 C          68.1602   92.3845   14.2606 C.ar    1  UNL1        0.0339
     10 C          68.1380   93.1178   15.5690 C.ar    1  UNL1        0.1254
     11 N          69.3686   93.8263   16.0525 N.pl3   1  UNL1       -0.3426
     12 N          66.8854   93.1425   16.3937 N.ar    1  UNL1       -0.2296
     13 C          65.6549   92.4340   15.9101 C.ar    1  UNL1        0.1008
     14 H          70.1907   93.8101   15.5112 H       1  UNL1        0.1437
     15 H          69.3541   94.3076   16.9113 H       1  UNL1        0.1437
     16 N          61.9306   89.7298   11.4458 N.am    1  UNL1       -0.2642
     17 C          61.8248   88.2979   11.0115 C.2     1  UNL1        0.2273
     18 O          62.5129   87.2225   11.7990 O.2     1  UNL1       -0.2747
     19 H          61.4790   90.4356   10.9289 H       1  UNL1        0.1567
     20 C          61.0309   87.9414    9.7898 C.3     1  UNL1        0.0853
     21 C          60.4866   89.0248    8.9065 C.3     1  UNL1        0.0099
     22 C          60.7813   86.5016    9.4513 C.3     1  UNL1        0.1124
     23 C          61.2822   85.9384    8.1544 C.3     1  UNL1        0.3982
     24 F          61.7830   85.3752    6.8575 F       1  UNL1       -0.1700
     25 F          62.6946   86.1999    8.5863 F       1  UNL1       -0.1700
     26 F          59.8697   85.6769    7.7225 F       1  UNL1       -0.1700
@<TRIPOS>BOND
     1     1     2    1
     2     2     3   ar
     3     3     4   ar
     4     4    16    1
     5    16    17   am
     6    17    18    2
     7    17    20    1
     8    20    21    1
     9    20    22    1
    10    22    23    1
    11    23    24    1
    12    23    25    1
    13    23    26    1
    14     4     5   ar
    15     5     6   ar
    16     6     7    1
    17     7     8   ar
    18     8     9   ar
    19     9    10   ar
    20    10    11    1
    21    10    12   ar
    22    12    13   ar
    23     6     2   ar
    24    13     7   ar
    25    16    19    1
    26    11    14    1
    27    11    15    1
@<TRIPOS>MOLECULE
*****
 26 27 0 0 0
SMALL
GASTEIGER

@<TRIPOS>ATOM
      1 C          63.4331   90.3964   16.5249 C.3     1  UNL1        0.0527
      2 C          63.4853   90.3407   15.0269 C.ar    1  UNL1        0.0673
      3 N          62.4760   89.6829   14.1334 N.ar    1  UNL1       -0.2283
      4 C          62.9228   89.8687   12.7136 C.ar    1  UNL1        0.1652
      5 S          64.2083   90.6415   12.7296 S.2     1  UNL1       -0.0517
      6 C          64.5560   90.9332   14.1594 C.ar    1  UNL1        0.0471
      7 C          65.7625   91.6854   14.6376 C.ar    1  UNL1        0.0265
      8 C          67.0256   91.6693   13.8287 C.ar    1  UNL1        0.0049
      9 C          68.2320   92.4214   14.3069 C.ar    1  UNL1        0.0339
     10 C          68.1754   93.1896   15.5940 C.ar    1  UNL1        0.1254
     11 N          69.3820   93.9418   16.0721 N.pl3   1  UNL1       -0.3426
     12 N          66.9123   93.2057   16.4028 N.ar    1  UNL1       -0.2296
     13 C          65.7059   92.4536   15.9246 C.ar    1  UNL1        0.1008
     14 H          70.2110   93.9312   15.5412 H       1  UNL1        0.1437
     15 H          69.3448   94.4460   16.9169 H       1  UNL1        0.1437
     16 N          62.2094   89.3695   11.4922 N.am    1  UNL1       -0.2642
     17 C          62.1752   87.9003   11.1916 C.2     1  UNL1        0.2273
     18 O          62.8545   86.9303   12.1124 O.2     1  UNL1       -0.2747
     19 H          61.7636   90.0061   10.8878 H       1  UNL1        0.1567
     20 C          61.4618   87.4011    9.9702 C.3     1  UNL1        0.0853
     21 C          62.1665   86.4888    9.0104 C.3     1  UNL1        0.0099
     22 C          60.0437   87.8141    9.7086 C.3     1  UNL1        0.1124
     23 C          59.6048   88.1470    8.3135 C.3     1  UNL1        0.3982
     24 F          59.1658   88.4798    6.9183 F       1  UNL1       -0.1700
     25 F          60.5052   89.3466    8.3163 F       1  UNL1       -0.1700
     26 F          58.7043   86.9474    8.3106 F       1  UNL1       -0.1700
@<TRIPOS>BOND
     1     1     2    1
     2     2     3   ar
     3     3     4   ar
     4     4    16    1
     5    16    17   am
     6    17    18    2
     7    17    20    1
     8    20    21    1
     9    20    22    1
    10    22    23    1
    11    23    24    1
    12    23    25    1
    13    23    26    1
    14     4     5   ar
    15     5     6   ar
    16     6     7    1
    17     7     8   ar
    18     8     9   ar
    19     9    10   ar
    20    10    11    1
    21    10    12   ar
    22    12    13   ar
    23     6     2   ar
    24    13     7   ar
    25    16    19    1
    26    11    14    1
    27    11    15    1
@<TRIPOS>MOLECULE
*****
 26 27 0 0 0
SMALL
GASTEIGER

@<TRIPOS>ATOM
      1 C          60.1389   90.4053   11.3191 C.3     1  UNL1        0.0527
      2 C          61.0281   89.2012   11.4161 C.ar    1  UNL1        0.0673
      3 N          60.5857   87.7700   11.3382 N.ar    1  UNL1       -0.2283
      4 C          61.8000   86.9011   11.4819 C.ar    1  UNL1        0.1652
      5 S          62.9927   87.7953   11.6486 S.2     1  UNL1       -0.0517
      6 C          62.5157   89.2168   11.6079 C.ar    1  UNL1        0.0471
      7 C          63.3753   90.4394   11.7364 C.ar    1  UNL1        0.0265
      8 C          63.7205   91.2449   10.5191 C.ar    1  UNL1        0.0049
      9 C          64.5801   92.4674   10.6477 C.ar    1  UNL1        0.0339
     10 C          65.0945   92.8843   11.9936 C.ar    1  UNL1        0.1254
     11 N          65.9542   94.1068   12.1221 N.pl3   1  UNL1       -0.3426
     12 N          64.7494   92.0788   13.2109 N.ar    1  UNL1       -0.2296
     13 C          63.8898   90.8563   13.0823 C.ar    1  UNL1        0.1008
     14 H          66.1807   94.6355   11.3231 H       1  UNL1        0.1437
     15 H          66.2919   94.3805   13.0055 H       1  UNL1        0.1437
     16 N          61.8183   85.4013   11.4624 N.am    1  UNL1       -0.2642
     17 C          62.5937   84.6471   12.5016 C.2     1  UNL1        0.2273
     18 O          63.3510   85.3927   13.5603 O.2     1  UNL1       -0.2747
     19 H          61.3213   84.9120   10.7676 H       1  UNL1        0.1567
     20 C          62.6120   83.1474   12.4820 C.3     1  UNL1        0.0853
     21 C          62.8899   82.4173   11.2015 C.3     1  UNL1        0.0099
     22 C          62.3525   82.3777   13.7431 C.3     1  UNL1        0.1124
     23 C          62.2958   80.8792   13.7089 C.3     1  UNL1        0.3982
     24 F          62.2392   79.3806   13.6747 F       1  UNL1       -0.1700
     25 F          63.7928   80.8209   13.7832 F       1  UNL1       -0.1700
     26 F          60.7988   80.9374   13.6346 F       1  UNL1       -0.1700
@<TRIPOS>BOND
     1     1     2    1
     2     2     3   ar
     3     3     4   ar
     4     4    16    1
     5    16    17   am
     6    17    18    2
     7    17    20    1
     8    20    21    1
     9    20    22    1
    10    22    23    1
    11    23    24    1
    12    23    25    1
    13    23    26    1
    14     4     5   ar
    15     5     6   ar
    16     6     7    1
    17     7     8   ar
    18     8     9   ar
    19     9    10   ar
    20    10    11    1
    21    10    12   ar
    22    12    13   ar
    23     6     2   ar
    24    13     7   ar
    25    16    19    1
    26    11    14    1
    27    11    15    1
@<TRIPOS>MOLECULE
*****
 26 27 0 0 0
SMALL
GASTEIGER

@<TRIPOS>ATOM
      1 C          67.4553   91.5819   15.4606 C.3     1  UNL1        0.0527
      2 C          66.5855   91.9125   14.2841 C.ar    1  UNL1        0.0673
      3 N          66.8940   92.9178   13.2145 N.ar    1  UNL1       -0.2283
      4 C          65.7537   92.9225   12.2399 C.ar    1  UNL1        0.1652
      5 S          64.7405   91.9200   12.7072 S.2     1  UNL1       -0.0517
      6 C          65.2546   91.2958   13.9706 C.ar    1  UNL1        0.0471
      7 C          64.5597   90.2402   14.7787 C.ar    1  UNL1        0.0265
      8 C          63.8524   90.6118   16.0481 C.ar    1  UNL1        0.0049
      9 C          63.1576   89.5562   16.8561 C.ar    1  UNL1        0.0339
     10 C          63.1700   88.1290   16.3946 C.ar    1  UNL1        0.1254
     11 N          62.4750   87.0734   17.2026 N.pl3   1  UNL1       -0.3426
     12 N          63.8772   87.7574   15.1251 N.ar    1  UNL1       -0.2296
     13 C          64.5721   88.8130   14.3171 C.ar    1  UNL1        0.1008
     14 H          62.0108   87.3173   18.0358 H       1  UNL1        0.1437
     15 H          62.4832   86.1367   16.8997 H       1  UNL1        0.1437
     16 N          65.6456   93.7792   11.0134 N.am    1  UNL1       -0.2642
     17 C          65.8641   95.2600   11.1112 C.2     1  UNL1        0.2273
     18 O          66.1907   95.8841   12.4356 O.2     1  UNL1       -0.2747
     19 H          65.4313   93.3696   10.1441 H       1  UNL1        0.1567
     20 C          65.7561   96.1167    9.8846 C.3     1  UNL1        0.0853
     21 C          64.4826   96.8545    9.5950 C.3     1  UNL1        0.0099
     22 C          66.9215   96.2355    8.9478 C.3     1  UNL1        0.1124
     23 C          67.4617   95.0146    8.2641 C.3     1  UNL1        0.3982
     24 F          68.0019   93.7937    7.5805 F       1  UNL1       -0.1700
     25 F          68.4043   94.7905    9.4092 F       1  UNL1       -0.1700
     26 F          66.5191   95.2387    7.1191 F       1  UNL1       -0.1700
@<TRIPOS>BOND
     1     1     2    1
     2     2     3   ar
     3     3     4   ar
     4     4    16    1
     5    16    17   am
     6    17    18    2
     7    17    20    1
     8    20    21    1
     9    20    22    1
    10    22    23    1
    11    23    24    1
    12    23    25    1
    13    23    26    1
    14     4     5   ar
    15     5     6   ar
    16     6     7    1
    17     7     8   ar
    18     8     9   ar
    19     9    10   ar
    20    10    11    1
    21    10    12   ar
    22    12    13   ar
    23     6     2   ar
    24    13     7   ar
    25    16    19    1
    26    11    14    1
    27    11    15    1
@<TRIPOS>MOLECULE
*****
 26 27 0 0 0
SMALL
GASTEIGER

@<TRIPOS>ATOM
      1 C          63.2026   89.8169   16.8953 C.3     1  UNL1        0.0527
      2 C          63.5535   88.6681   15.9969 C.ar    1  UNL1        0.0673
      3 N          63.3336   87.2150   16.2971 N.ar    1  UNL1       -0.2283
      4 C          63.8302   86.4194   15.1263 C.ar    1  UNL1        0.1652
      5 S          64.3569   87.3809   14.1026 S.2     1  UNL1       -0.0517
      6 C          64.1860   88.7707   14.6406 C.ar    1  UNL1        0.0471
      7 C          64.5785   90.0401   13.9446 C.ar    1  UNL1        0.0265
      8 C          63.8762   90.4529   12.6851 C.ar    1  UNL1        0.0049
      9 C          64.2688   91.7223   11.9891 C.ar    1  UNL1        0.0339
     10 C          65.3637   92.5789   12.5525 C.ar    1  UNL1        0.1254
     11 N          65.7562   93.8484   11.8564 N.pl3   1  UNL1       -0.3426
     12 N          66.0660   92.1661   13.8120 N.ar    1  UNL1       -0.2296
     13 C          65.6734   90.8967   14.5080 C.ar    1  UNL1        0.1008
     14 H          65.2953   94.1193   11.0298 H       1  UNL1        0.1437
     15 H          66.4749   94.4106   12.2262 H       1  UNL1        0.1437
     16 N          63.8045   84.9249   15.0013 N.am    1  UNL1       -0.2642
     17 C          63.0247   84.2781   13.8950 C.2     1  UNL1        0.2273
     18 O          62.2707   85.1260   12.9138 O.2     1  UNL1       -0.2747
     19 H          64.2994   84.3685   15.6453 H       1  UNL1        0.1567
     20 C          62.9990   82.7836   13.7700 C.3     1  UNL1        0.0853
     21 C          61.9489   81.9888   14.4881 C.3     1  UNL1        0.0099
     22 C          64.0234   82.0838   12.9268 C.3     1  UNL1        0.1124
     23 C          63.7582   81.8431   11.4703 C.3     1  UNL1        0.3982
     24 F          63.4931   81.6024   10.0137 F       1  UNL1       -0.1700
     25 F          64.6159   83.0226   11.1192 F       1  UNL1       -0.1700
     26 F          62.9006   80.6636   11.8213 F       1  UNL1       -0.1700
@<TRIPOS>BOND
     1     1     2    1
     2     2     3   ar
     3     3     4   ar
     4     4    16    1
     5    16    17   am
     6    17    18    2
     7    17    20    1
     8    20    21    1
     9    20    22    1
    10    22    23    1
    11    23    24    1
    12    23    25    1
    13    23    26    1
    14     4     5   ar
    15     5     6   ar
    16     6     7    1
    17     7     8   ar
    18     8     9   ar
    19     9    10   ar
    20    10    11    1
    21    10    12   ar
    22    12    13   ar
    23     6     2   ar
    24    13     7   ar
    25    16    19    1
    26    11    14    1
    27    11    15    1
@<TRIPOS>MOLECULE
*****
 26 27 0 0 0
SMALL
GASTEIGER

@<TRIPOS>ATOM
      1 C          62.7075   89.3769   11.7358 C.3     1  UNL1        0.0527
      2 C          63.1512   88.1820   12.5266 C.ar    1  UNL1        0.0673
      3 N          63.0329   86.7489   12.0998 N.ar    1  UNL1       -0.2283
      4 C          63.5996   85.8916   13.1925 C.ar    1  UNL1        0.1652
      5 S          64.0682   86.7949   14.2945 S.2     1  UNL1       -0.0517
      6 C          63.7910   88.2105   13.8830 C.ar    1  UNL1        0.0471
      7 C          64.0995   89.4388   14.6868 C.ar    1  UNL1        0.0265
      8 C          65.2183   90.3467   14.2696 C.ar    1  UNL1        0.0049
      9 C          65.5268   91.5750   15.0734 C.ar    1  UNL1        0.0339
     10 C          64.7165   91.8954   16.2943 C.ar    1  UNL1        0.1254
     11 N          65.0250   93.1238   17.0981 N.pl3   1  UNL1       -0.3426
     12 N          63.5977   90.9876   16.7115 N.ar    1  UNL1       -0.2296
     13 C          63.2892   89.7593   15.9077 C.ar    1  UNL1        0.1008
     14 H          65.7593   93.7196   16.8243 H       1  UNL1        0.1437
     15 H          64.4932   93.3341   17.8994 H       1  UNL1        0.1437
     16 N          63.6832   84.3939   13.1845 N.am    1  UNL1       -0.2642
     17 C          63.0351   83.6125   12.0802 C.2     1  UNL1        0.2273
     18 O          62.3034   84.3288   10.9840 O.2     1  UNL1       -0.2747
     19 H          64.1634   83.9238   13.9040 H       1  UNL1        0.1567
     20 C          63.1186   82.1149   12.0722 C.3     1  UNL1        0.0853
     21 C          63.3011   81.3808   10.7769 C.3     1  UNL1        0.0099
     22 C          63.0196   81.3513   13.3596 C.3     1  UNL1        0.1124
     23 C          61.6761   80.9488   13.8914 C.3     1  UNL1        0.3982
     24 F          60.3326   80.5463   14.4232 F       1  UNL1       -0.1700
     25 F          61.5599   82.2678   14.5961 F       1  UNL1       -0.1700
     26 F          61.7923   79.6298   13.1866 F       1  UNL1       -0.1700
@<TRIPOS>BOND
     1     1     2    1
     2     2     3   ar
     3     3     4   ar
     4     4    16    1
     5    16    17   am
     6    17    18    2
     7    17    20    1
     8    20    21    1
     9    20    22    1
    10    22    23    1
    11    23    24    1
    12    23    25    1
    13    23    26    1
    14     4     5   ar
    15     5     6   ar
    16     6     7    1
    17     7     8   ar
    18     8     9   ar
    19     9    10   ar
    20    10    11    1
    21    10    12   ar
    22    12    13   ar
    23     6     2   ar
    24    13     7   ar
    25    16    19    1
    26    11    14    1
    27    11    15    1
@<TRIPOS>MOLECULE
*****
 26 27 0 0 0
SMALL
GASTEIGER

@<TRIPOS>ATOM
      1 C          59.8874   89.8167    9.3661 C.3     1  UNL1        0.0527
      2 C          60.9467   89.3499   10.3200 C.ar    1  UNL1        0.0673
      3 N          61.4163   90.0809   11.5427 N.ar    1  UNL1       -0.2283
      4 C          62.4823   89.2529   12.1970 C.ar    1  UNL1        0.1652
      5 S          62.6716   88.0102   11.3786 S.2     1  UNL1       -0.0517
      6 C          61.7226   88.0702   10.2185 C.ar    1  UNL1        0.0471
      7 C          61.5752   87.0325    9.1453 C.ar    1  UNL1        0.0265
      8 C          62.7526   86.1925    8.7476 C.ar    1  UNL1        0.0049
      9 C          62.6052   85.1549    7.6745 C.ar    1  UNL1        0.0339
     10 C          61.2805   84.9572    6.9991 C.ar    1  UNL1        0.1254
     11 N          61.1332   83.9195    5.9260 N.pl3   1  UNL1       -0.3426
     12 N          60.1032   85.7972    7.3969 N.ar    1  UNL1       -0.2296
     13 C          60.2505   86.8348    8.4700 C.ar    1  UNL1        0.1008
     14 H          61.9060   83.3682    5.6649 H       1  UNL1        0.1437
     15 H          60.2638   83.7898    5.4827 H       1  UNL1        0.1437
     16 N          63.2281   89.6057   13.4497 N.am    1  UNL1       -0.2642
     17 C          64.1721   90.7714   13.4575 C.2     1  UNL1        0.2273
     18 O          64.3704   91.5843   12.2125 O.2     1  UNL1       -0.2747
     19 H          63.0980   89.0722   14.2668 H       1  UNL1        0.1567
     20 C          64.9179   91.1241   14.7102 C.3     1  UNL1        0.0853
     21 C          64.1797   91.2633   16.0086 C.3     1  UNL1        0.0099
     22 C          66.4019   91.3378   14.6646 C.3     1  UNL1        0.1124
     23 C          67.0047   92.5529   15.3050 C.3     1  UNL1        0.3982
     24 F          67.6075   93.7680   15.9455 F       1  UNL1       -0.1700
     25 F          66.0841   93.4294   14.5086 F       1  UNL1       -0.1700
     26 F          67.9253   91.6764   16.1014 F       1  UNL1       -0.1700
@<TRIPOS>BOND
     1     1     2    1
     2     2     3   ar
     3     3     4   ar
     4     4    16    1
     5    16    17   am
     6    17    18    2
     7    17    20    1
     8    20    21    1
     9    20    22    1
    10    22    23    1
    11    23    24    1
    12    23    25    1
    13    23    26    1
    14     4     5   ar
    15     5     6   ar
    16     6     7    1
    17     7     8   ar
    18     8     9   ar
    19     9    10   ar
    20    10    11    1
    21    10    12   ar
    22    12    13   ar
    23     6     2   ar
    24    13     7   ar
    25    16    19    1
    26    11    14    1
    27    11    15    1
@<TRIPOS>MOLECULE
*****
 26 27 0 0 0
SMALL
GASTEIGER

@<TRIPOS>ATOM
      1 C          61.7267   85.8087   10.9631 C.3     1  UNL1        0.0527
      2 C          62.6189   86.1685   12.1140 C.ar    1  UNL1        0.0673
      3 N          63.1164   87.5437   12.4475 N.ar    1  UNL1       -0.2283
      4 C          63.9753   87.4413   13.6731 C.ar    1  UNL1        0.1652
      5 S          64.0085   86.0029   14.0969 S.2     1  UNL1       -0.0517
      6 C          63.1702   85.2162   13.1333 C.ar    1  UNL1        0.0471
      7 C          62.9262   83.7369   13.1809 C.ar    1  UNL1        0.0265
      8 C          63.1695   82.8971   11.9621 C.ar    1  UNL1        0.0049
      9 C          62.9254   81.4179   12.0096 C.ar    1  UNL1        0.0339
     10 C          62.4381   80.7785   13.2760 C.ar    1  UNL1        0.1254
     11 N          62.1940   79.2991   13.3235 N.pl3   1  UNL1       -0.3426
     12 N          62.1948   81.6183   14.4948 N.ar    1  UNL1       -0.2296
     13 C          62.4389   83.0975   14.4472 C.ar    1  UNL1        0.1008
     14 H          62.3537   78.7480   12.5235 H       1  UNL1        0.1437
     15 H          61.8742   78.8795   14.1546 H       1  UNL1        0.1437
     16 N          64.6775   88.5779   14.3550 N.am    1  UNL1       -0.2642
     17 C          63.9384   89.8506   14.6447 C.2     1  UNL1        0.2273
     18 O          62.4969   89.9867   14.2525 O.2     1  UNL1       -0.2747
     19 H          65.6236   88.4886   14.6124 H       1  UNL1        0.1567
     20 C          64.6406   90.9872   15.3266 C.3     1  UNL1        0.0853
     21 C          63.9950   91.6769   16.4917 C.3     1  UNL1        0.0099
     22 C          65.9886   91.4340   14.8434 C.3     1  UNL1        0.1124
     23 C          66.2356   92.8829   14.5443 C.3     1  UNL1        0.3982
     24 F          66.4827   94.3319   14.2452 F       1  UNL1       -0.1700
     25 F          67.0038   93.0165   15.8257 F       1  UNL1       -0.1700
     26 F          65.4675   92.7494   13.2629 F       1  UNL1       -0.1700
@<TRIPOS>BOND
     1     1     2    1
     2     2     3   ar
     3     3     4   ar
     4     4    16    1
     5    16    17   am
     6    17    18    2
     7    17    20    1
     8    20    21    1
     9    20    22    1
    10    22    23    1
    11    23    24    1
    12    23    25    1
    13    23    26    1
    14     4     5   ar
    15     5     6   ar
    16     6     7    1
    17     7     8   ar
    18     8     9   ar
    19     9    10   ar
    20    10    11    1
    21    10    12   ar
    22    12    13   ar
    23     6     2   ar
    24    13     7   ar
    25    16    19    1
    26    11    14    1
    27    11    15    1
@<TRIPOS>MOLECULE
*****
 26 27 0 0 0
SMALL
GASTEIGER

@<TRIPOS>ATOM
      1 C          62.7962   85.3406   12.7059 C.3     1  UNL1        0.0527
      2 C          63.0587   86.8157   12.6338 C.ar    1  UNL1        0.0673
      3 N          63.9301   87.6027   13.5672 N.ar    1  UNL1       -0.2283
      4 C          63.9060   89.0362   13.1260 C.ar    1  UNL1        0.1652
      5 S          63.0196   89.1350   11.9199 S.2     1  UNL1       -0.0517
      6 C          62.4960   87.7627   11.6158 C.ar    1  UNL1        0.0471
      7 C          61.5719   87.4008   10.4909 C.ar    1  UNL1        0.0265
      8 C          62.0381   86.4774    9.4047 C.ar    1  UNL1        0.0049
      9 C          61.1140   86.1157    8.2800 C.ar    1  UNL1        0.0339
     10 C          59.7236   86.6773    8.2415 C.ar    1  UNL1        0.1254
     11 N          58.7995   86.3155    7.1166 N.pl3   1  UNL1       -0.3426
     12 N          59.2574   87.6007    9.3277 N.ar    1  UNL1       -0.2296
     13 C          60.1815   87.9625   10.4524 C.ar    1  UNL1        0.1008
     14 H          59.1055   85.7094    6.4037 H       1  UNL1        0.1437
     15 H          57.8870   86.6841    7.0913 H       1  UNL1        0.1437
     16 N          64.6393   90.1715   13.7766 N.am    1  UNL1       -0.2642
     17 C          64.2000   90.6771   15.1187 C.2     1  UNL1        0.2273
     18 O          63.0272   90.0474   15.8102 O.2     1  UNL1       -0.2747
     19 H          65.4091   90.5847   13.3227 H       1  UNL1        0.1567
     20 C          64.9334   91.8124   15.7693 C.3     1  UNL1        0.0853
     21 C          64.4940   92.3181   17.1114 C.3     1  UNL1        0.0099
     22 C          66.1061   92.4420   15.0778 C.3     1  UNL1        0.1124
     23 C          67.4870   92.2726   15.6386 C.3     1  UNL1        0.3982
     24 F          68.8678   92.1032   16.1995 F       1  UNL1       -0.1700
     25 F          67.6022   90.9433   14.9533 F       1  UNL1       -0.1700
     26 F          67.3717   93.6019   16.3239 F       1  UNL1       -0.1700
@<TRIPOS>BOND
     1     1     2    1
     2     2     3   ar
     3     3     4   ar
     4     4    16    1
     5    16    17   am
     6    17    18    2
     7    17    20    1
     8    20    21    1
     9    20    22    1
    10    22    23    1
    11    23    24    1
    12    23    25    1
    13    23    26    1
    14     4     5   ar
    15     5     6   ar
    16     6     7    1
    17     7     8   ar
    18     8     9   ar
    19     9    10   ar
    20    10    11    1
    21    10    12   ar
    22    12    13   ar
    23     6     2   ar
    24    13     7   ar
    25    16    19    1
    26    11    14    1
    27    11    15    1
