@<TRIPOS>MOLECULE
*****
 38 44 0 0 0
SMALL
GASTEIGER

@<TRIPOS>ATOM
      1 N          60.8699   88.4336    8.8381 N.pl3   1  UNL1       -0.2881
      2 C          61.8095   89.0719    9.8178 C.3     1  UNL1        0.0930
      3 C          62.3743   88.2656   10.9496 C.3     1  UNL1        0.0259
      4 C          61.9996   86.8212   11.1018 C.3     1  UNL1        0.0256
      5 C          62.9356   87.1014   12.2400 C.2     1  UNL1       -0.0304
      6 C          62.7984   85.6811   12.7024 C.2     1  UNL1       -0.0219
      7 C          61.8625   85.4009   11.5642 C.3     1  UNL1        0.0303
      8 C          61.0601   86.1829   10.1221 C.3     1  UNL1        0.0259
      9 C          60.4952   86.9892    8.9903 C.3     1  UNL1        0.0930
     10 C          59.1506   92.0827    3.8051 C.ar    1  UNL1        0.0168
     11 C          57.7645   91.6707    4.2034 C.ar    1  UNL1        0.0324
     12 C          57.5605   90.7664    5.3828 C.ar    1  UNL1        0.1582
     13 F          56.1742   90.3544    5.7810 F       1  UNL1       -0.2026
     14 C          58.7428   90.2743    6.1638 C.ar    1  UNL1        0.1166
     15 N          58.8516   89.3803    7.3633 N.ar    1  UNL1       -0.2218
     16 C          60.3050   89.2398    7.7063 C.ar    1  UNL1        0.1631
     17 S          61.0945   90.0470    6.7188 S.2     1  UNL1       -0.0515
     18 C          60.1290   90.6864    5.7654 C.ar    1  UNL1        0.0520
     19 C          60.3329   91.5905    4.5861 C.ar    1  UNL1        0.0093
     20 O          58.9671   92.5265    1.2518 O.co2   1  UNL1       -0.5446
     21 C          59.3546   92.9869    2.6257 C.2     1  UNL1        0.0730
     22 O          59.9461   94.3515    2.8204 O.co2   1  UNL1       -0.5446
     23 C          63.3633   84.8749   13.8342 C.ar    1  UNL1        0.0495
     24 C          63.6492   83.4026   13.8113 C.ar    1  UNL1        0.1239
     25 N          64.2040   83.0172   15.1506 N.ar    1  UNL1       -0.0773
     26 O          64.2610   84.2514   16.0012 O.2     1  UNL1       -0.3578
     27 C          63.7415   85.3995   15.1877 C.ar    1  UNL1        0.1535
     28 C          63.4204   82.4780   12.6525 C.ar    1  UNL1        0.0451
     29 C          64.1276   82.7168   11.3514 C.ar    1  UNL1        0.0791
     30 CL         65.0637   83.8803   11.2092 Cl      1  UNL1       -0.0805
     31 C          63.8988   81.7922   10.1926 C.ar    1  UNL1        0.1103
     32 N          62.9628   80.6288   10.3349 N.ar    1  UNL1       -0.2405
     33 C          62.2555   80.3899   11.6360 C.ar    1  UNL1        0.1103
     34 C          62.4843   81.3145   12.7948 C.ar    1  UNL1        0.0791
     35 CL         61.7770   81.0757   14.0959 Cl      1  UNL1       -0.0805
     36 C          63.6212   86.8224   15.6469 C.3     1  UNL1        0.0602
     37 C          63.8792   88.2839   15.4292 C.3     1  UNL1        0.0081
     38 C          63.1548   87.8254   16.6600 C.3     1  UNL1        0.0081
@<TRIPOS>UNITY_ATOM_ATTR
20 1
charge -1
@<TRIPOS>BOND
     1    20    21   ar
     2    21    22   ar
     3    21    10    1
     4    10    11   ar
     5    11    12   ar
     6    12    13    1
     7    12    14   ar
     8    14    15   ar
     9    15    16   ar
    10    16     1    1
    11     1     2    1
    12     2     3    1
    13     3     4    1
    14     4     5    1
    15     5     6    2
    16     6    23    1
    17    23    24   ar
    18    24    28    1
    19    28    29   ar
    20    29    30    1
    21    29    31   ar
    22    31    32   ar
    23    32    33   ar
    24    33    34   ar
    25    34    35    1
    26    24    25   ar
    27    25    26   ar
    28    26    27   ar
    29    27    36    1
    30    36    37    1
    31    37    38    1
    32     6     7    1
    33     4     8    1
    34     8     9    1
    35    16    17   ar
    36    17    18   ar
    37    18    19   ar
    38    19    10   ar
    39    18    14   ar
    40     9     1    1
    41     7     4    1
    42    27    23   ar
    43    38    36    1
    44    34    28   ar
@<TRIPOS>MOLECULE
*****
 38 44 0 0 0
SMALL
GASTEIGER

@<TRIPOS>ATOM
      1 N          60.1487   91.2443    4.6129 N.pl3   1  UNL1       -0.2881
      2 C          58.9248   91.9045    4.0506 C.3     1  UNL1        0.0930
      3 C          59.0344   92.7761    2.8348 C.3     1  UNL1        0.0259
      4 C          60.3678   92.9875    2.1811 C.3     1  UNL1        0.0256
      5 C          59.4012   93.7871    1.3587 C.2     1  UNL1       -0.0304
      6 C          60.5226   94.2202    0.4617 C.2     1  UNL1       -0.0219
      7 C          61.4893   93.4206    1.2841 C.3     1  UNL1        0.0303
      8 C          61.5917   92.3273    2.7433 C.3     1  UNL1        0.0259
      9 C          61.4821   91.4557    3.9592 C.3     1  UNL1        0.0930
     10 C          60.0123   88.0542   10.2171 C.ar    1  UNL1        0.0168
     11 C          59.3499   86.9894    9.3942 C.ar    1  UNL1        0.0324
     12 C          59.1134   87.2118    7.9297 C.ar    1  UNL1        0.1582
     13 F          58.4508   86.1470    7.1067 F       1  UNL1       -0.2026
     14 C          59.5395   88.4991    7.2882 C.ar    1  UNL1        0.1166
     15 N          59.4388   88.9989    5.8776 N.ar    1  UNL1       -0.2218
     16 C          60.0392   90.3727    5.8287 C.ar    1  UNL1        0.1631
     17 S          60.5109   90.7218    7.2092 S.2     1  UNL1       -0.0515
     18 C          60.2020   89.5638    8.1112 C.ar    1  UNL1        0.0520
     19 C          60.4384   89.3414    9.5757 C.ar    1  UNL1        0.0093
     20 O          61.2549   86.8150   12.1330 O.co2   1  UNL1       -0.5446
     21 C          60.2488   87.8318   11.6816 C.2     1  UNL1        0.0730
     22 O          59.4791   88.6263   12.6947 O.co2   1  UNL1       -0.5446
     23 C          60.6321   95.0918   -0.7542 C.ar    1  UNL1        0.0495
     24 C          59.5786   95.2737   -1.8063 C.ar    1  UNL1        0.1239
     25 N          60.1097   96.2289   -2.8338 N.ar    1  UNL1       -0.0773
     26 O          61.4915   96.6373   -2.4166 O.2     1  UNL1       -0.3578
     27 C          61.8143   95.9345   -1.1313 C.ar    1  UNL1        0.1535
     28 C          58.2307   94.6160   -1.8273 C.ar    1  UNL1        0.0451
     29 C          58.1037   93.1790   -2.2387 C.ar    1  UNL1        0.0791
     30 CL         59.3246   92.4000   -2.6290 Cl      1  UNL1       -0.0805
     31 C          56.7557   92.5212   -2.2597 C.ar    1  UNL1        0.1103
     32 N          55.5349   93.3003   -1.8694 N.ar    1  UNL1       -0.2405
     33 C          55.6618   94.7373   -1.4581 C.ar    1  UNL1        0.1103
     34 C          57.0098   95.3951   -1.4370 C.ar    1  UNL1        0.0791
     35 CL         57.1368   96.8320   -1.0257 Cl      1  UNL1       -0.0805
     36 C          63.0946   96.0536   -0.3589 C.3     1  UNL1        0.0602
     37 C          64.5899   95.9510   -0.2988 C.3     1  UNL1        0.0081
     38 C          63.8168   96.3624    0.9190 C.3     1  UNL1        0.0081
@<TRIPOS>UNITY_ATOM_ATTR
20 1
charge -1
@<TRIPOS>BOND
     1    20    21   ar
     2    21    22   ar
     3    21    10    1
     4    10    11   ar
     5    11    12   ar
     6    12    13    1
     7    12    14   ar
     8    14    15   ar
     9    15    16   ar
    10    16     1    1
    11     1     2    1
    12     2     3    1
    13     3     4    1
    14     4     5    1
    15     5     6    2
    16     6    23    1
    17    23    24   ar
    18    24    28    1
    19    28    29   ar
    20    29    30    1
    21    29    31   ar
    22    31    32   ar
    23    32    33   ar
    24    33    34   ar
    25    34    35    1
    26    24    25   ar
    27    25    26   ar
    28    26    27   ar
    29    27    36    1
    30    36    37    1
    31    37    38    1
    32     6     7    1
    33     4     8    1
    34     8     9    1
    35    16    17   ar
    36    17    18   ar
    37    18    19   ar
    38    19    10   ar
    39    18    14   ar
    40     9     1    1
    41     7     4    1
    42    27    23   ar
    43    38    36    1
    44    34    28   ar
@<TRIPOS>MOLECULE
*****
 38 44 0 0 0
SMALL
GASTEIGER

@<TRIPOS>ATOM
      1 N          60.7511   87.7775    8.6657 N.pl3   1  UNL1       -0.2881
      2 C          60.4363   87.9866   10.1173 C.3     1  UNL1        0.0930
      3 C          60.9697   87.0331   11.1452 C.3     1  UNL1        0.0259
      4 C          61.8177   85.8707   10.7215 C.3     1  UNL1        0.0256
      5 C          61.7201   85.7564   12.2140 C.2     1  UNL1       -0.0304
      6 C          62.5719   84.5224   12.1752 C.2     1  UNL1       -0.0219
      7 C          62.6695   84.6366   10.6828 C.3     1  UNL1        0.0303
      8 C          62.1325   85.6616    9.2699 C.3     1  UNL1        0.0259
      9 C          61.5991   86.6151    8.2420 C.3     1  UNL1        0.0930
     10 C          59.1746   92.0379    4.0867 C.ar    1  UNL1        0.0168
     11 C          57.7728   91.6609    4.4642 C.ar    1  UNL1        0.0324
     12 C          57.5336   90.6466    5.5432 C.ar    1  UNL1        0.1582
     13 F          56.1316   90.2695    5.9206 F       1  UNL1       -0.2026
     14 C          58.6963   90.0095    6.2446 C.ar    1  UNL1        0.1166
     15 N          58.7702   88.9862    7.3389 N.ar    1  UNL1       -0.2218
     16 C          60.2178   88.7309    7.6377 C.ar    1  UNL1        0.1631
     17 S          61.0386   89.5964    6.7281 S.2     1  UNL1       -0.0515
     18 C          60.0982   90.3866    5.8671 C.ar    1  UNL1        0.0520
     19 C          60.3374   91.4008    4.7882 C.ar    1  UNL1        0.0093
     20 O          59.9779   94.3979    3.3550 O.co2   1  UNL1       -0.5446
     21 C          59.4138   93.0522    3.0077 C.2     1  UNL1        0.0730
     22 O          59.0889   92.7206    1.5814 O.co2   1  UNL1       -0.5446
     23 C          63.1051   83.5690   13.2032 C.ar    1  UNL1        0.0495
     24 C          63.4750   83.9119   14.6158 C.ar    1  UNL1        0.1239
     25 N          63.9606   82.6602   15.2847 N.ar    1  UNL1       -0.0773
     26 O          63.8908   81.5437   14.2854 O.2     1  UNL1       -0.3578
     27 C          63.3621   82.1053   12.9989 C.ar    1  UNL1        0.1535
     28 C          63.3765   85.2683   15.2485 C.ar    1  UNL1        0.0451
     29 C          64.5139   86.2385   15.1239 C.ar    1  UNL1        0.0791
     30 CL         65.7496   85.8519   14.3664 Cl      1  UNL1       -0.0805
     31 C          64.4154   87.5949   15.7565 C.ar    1  UNL1        0.1103
     32 N          63.1798   87.9813   16.5139 N.ar    1  UNL1       -0.2405
     33 C          62.0424   87.0113   16.6386 C.ar    1  UNL1        0.1103
     34 C          62.1408   85.6548   16.0059 C.ar    1  UNL1        0.0791
     35 CL         61.0035   84.6847   16.1306 Cl      1  UNL1       -0.0805
     36 C          63.1310   81.3381   11.7309 C.3     1  UNL1        0.0602
     37 C          62.6998   80.0826   11.0325 C.3     1  UNL1        0.0081
     38 C          63.1619   81.2647   10.2330 C.3     1  UNL1        0.0081
@<TRIPOS>UNITY_ATOM_ATTR
20 1
charge -1
@<TRIPOS>BOND
     1    20    21   ar
     2    21    22   ar
     3    21    10    1
     4    10    11   ar
     5    11    12   ar
     6    12    13    1
     7    12    14   ar
     8    14    15   ar
     9    15    16   ar
    10    16     1    1
    11     1     2    1
    12     2     3    1
    13     3     4    1
    14     4     5    1
    15     5     6    2
    16     6    23    1
    17    23    24   ar
    18    24    28    1
    19    28    29   ar
    20    29    30    1
    21    29    31   ar
    22    31    32   ar
    23    32    33   ar
    24    33    34   ar
    25    34    35    1
    26    24    25   ar
    27    25    26   ar
    28    26    27   ar
    29    27    36    1
    30    36    37    1
    31    37    38    1
    32     6     7    1
    33     4     8    1
    34     8     9    1
    35    16    17   ar
    36    17    18   ar
    37    18    19   ar
    38    19    10   ar
    39    18    14   ar
    40     9     1    1
    41     7     4    1
    42    27    23   ar
    43    38    36    1
    44    34    28   ar
@<TRIPOS>MOLECULE
*****
 38 44 0 0 0
SMALL
GASTEIGER

@<TRIPOS>ATOM
      1 N          60.3929   91.3226    4.6267 N.pl3   1  UNL1       -0.2881
      2 C          59.2731   92.2148    4.1795 C.3     1  UNL1        0.0930
      3 C          59.4542   93.1044    2.9853 C.3     1  UNL1        0.0259
      4 C          60.7551   93.1017    2.2384 C.3     1  UNL1        0.0256
      5 C          59.8949   94.0960    1.5164 C.2     1  UNL1       -0.0304
      6 C          61.0111   94.3596    0.5497 C.2     1  UNL1       -0.0219
      7 C          61.8713   93.3653    1.2717 C.3     1  UNL1        0.0303
      8 C          61.8748   92.2094    2.6857 C.3     1  UNL1        0.0259
      9 C          61.6937   91.3199    3.8799 C.3     1  UNL1        0.0930
     10 C          59.9657   88.0310   10.1572 C.ar    1  UNL1        0.0168
     11 C          59.2737   87.0162    9.2964 C.ar    1  UNL1        0.0324
     12 C          59.0845   87.2791    7.8317 C.ar    1  UNL1        0.1582
     13 F          58.3925   86.2641    6.9708 F       1  UNL1       -0.2026
     14 C          59.5873   88.5568    7.2280 C.ar    1  UNL1        0.1166
     15 N          59.5456   89.0892    5.8263 N.ar    1  UNL1       -0.2218
     16 C          60.2118   90.4331    5.8209 C.ar    1  UNL1        0.1631
     17 S          60.6652   90.7313    7.2193 S.2     1  UNL1       -0.0515
     18 C          60.2792   89.5717    8.0889 C.ar    1  UNL1        0.0520
     19 C          60.4684   89.3088    9.5535 C.ar    1  UNL1        0.0093
     20 O          59.3548   88.5367   12.6313 O.co2   1  UNL1       -0.5446
     21 C          60.1549   87.7682   11.6219 C.2     1  UNL1        0.0730
     22 O          61.1444   86.7368   12.0770 O.co2   1  UNL1       -0.5446
     23 C          61.1922   95.2492   -0.6445 C.ar    1  UNL1        0.0495
     24 C          60.1828   95.4861   -1.7285 C.ar    1  UNL1        0.1239
     25 N          60.7811   96.4413   -2.7182 N.ar    1  UNL1       -0.0773
     26 O          62.1603   96.7947   -2.2459 O.2     1  UNL1       -0.3578
     27 C          62.4143   96.0579   -0.9642 C.ar    1  UNL1        0.1535
     28 C          58.8152   94.8751   -1.8087 C.ar    1  UNL1        0.0451
     29 C          57.6503   95.5551   -1.1525 C.ar    1  UNL1        0.0791
     30 CL         57.8530   96.8462   -0.4161 Cl      1  UNL1       -0.0805
     31 C          56.2827   94.9441   -1.2326 C.ar    1  UNL1        0.1103
     32 N          56.0801   93.6532   -1.9689 N.ar    1  UNL1       -0.2405
     33 C          57.2449   92.9731   -2.6251 C.ar    1  UNL1        0.1103
     34 C          58.6126   93.5840   -2.5450 C.ar    1  UNL1        0.0791
     35 CL         59.7774   92.9040   -3.2012 Cl      1  UNL1       -0.0805
     36 C          63.6700   96.1192   -0.1460 C.3     1  UNL1        0.0602
     37 C          64.4461   95.7208    1.0742 C.3     1  UNL1        0.0081
     38 C          65.0688   96.6236    0.0509 C.3     1  UNL1        0.0081
@<TRIPOS>UNITY_ATOM_ATTR
20 1
charge -1
@<TRIPOS>BOND
     1    20    21   ar
     2    21    22   ar
     3    21    10    1
     4    10    11   ar
     5    11    12   ar
     6    12    13    1
     7    12    14   ar
     8    14    15   ar
     9    15    16   ar
    10    16     1    1
    11     1     2    1
    12     2     3    1
    13     3     4    1
    14     4     5    1
    15     5     6    2
    16     6    23    1
    17    23    24   ar
    18    24    28    1
    19    28    29   ar
    20    29    30    1
    21    29    31   ar
    22    31    32   ar
    23    32    33   ar
    24    33    34   ar
    25    34    35    1
    26    24    25   ar
    27    25    26   ar
    28    26    27   ar
    29    27    36    1
    30    36    37    1
    31    37    38    1
    32     6     7    1
    33     4     8    1
    34     8     9    1
    35    16    17   ar
    36    17    18   ar
    37    18    19   ar
    38    19    10   ar
    39    18    14   ar
    40     9     1    1
    41     7     4    1
    42    27    23   ar
    43    38    36    1
    44    34    28   ar
@<TRIPOS>MOLECULE
*****
 38 44 0 0 0
SMALL
GASTEIGER

@<TRIPOS>ATOM
      1 N          60.2061   91.2074    4.6180 N.pl3   1  UNL1       -0.2881
      2 C          59.0123   91.9328    4.0716 C.3     1  UNL1        0.0930
      3 C          59.1449   92.7695    2.8337 C.3     1  UNL1        0.0259
      4 C          60.4713   92.8808    2.1421 C.3     1  UNL1        0.0256
      5 C          59.5362   93.7231    1.3261 C.2     1  UNL1       -0.0304
      6 C          60.6588   94.0640    0.3915 C.2     1  UNL1       -0.0219
      7 C          61.5940   93.2217    1.2075 C.3     1  UNL1        0.0303
      8 C          61.6652   92.1554    2.6885 C.3     1  UNL1        0.0259
      9 C          61.5325   91.3187    3.9264 C.3     1  UNL1        0.0930
     10 C          59.9827   88.1693   10.3033 C.ar    1  UNL1        0.0168
     11 C          59.2975   87.0990    9.5066 C.ar    1  UNL1        0.0324
     12 C          59.0697   87.2884    8.0361 C.ar    1  UNL1        0.1582
     13 F          58.3844   86.2180    7.2394 F       1  UNL1       -0.2026
     14 C          59.5270   88.5481    7.3624 C.ar    1  UNL1        0.1166
     15 N          59.4413   89.0131    5.9389 N.ar    1  UNL1       -0.2218
     16 C          60.0736   90.3707    5.8559 C.ar    1  UNL1        0.1631
     17 S          60.5501   90.7449    7.2281 S.2     1  UNL1       -0.0515
     18 C          60.2123   89.6185    8.1592 C.ar    1  UNL1        0.0520
     19 C          60.4401   89.4290    9.6297 C.ar    1  UNL1        0.0093
     20 O          59.3517   88.7069   12.7656 O.co2   1  UNL1       -0.5446
     21 C          60.2106   87.9800   11.7738 C.2     1  UNL1        0.0730
     22 O          61.2974   87.0636   12.2524 O.co2   1  UNL1       -0.5446
     23 C          60.7913   94.9007   -0.8464 C.ar    1  UNL1        0.0495
     24 C          61.9246   95.8302   -1.1651 C.ar    1  UNL1        0.1239
     25 N          61.6476   96.4588   -2.4986 N.ar    1  UNL1       -0.0773
     26 O          60.3431   95.9177   -3.0040 O.2     1  UNL1       -0.3578
     27 C          59.8139   94.9547   -1.9829 C.ar    1  UNL1        0.1535
     28 C          63.1243   96.0863   -0.3019 C.ar    1  UNL1        0.0451
     29 C          62.9464   96.5982    1.0968 C.ar    1  UNL1        0.0791
     30 CL         61.5687   96.8541    1.6322 Cl      1  UNL1       -0.0805
     31 C          64.1461   96.8543    1.9601 C.ar    1  UNL1        0.1103
     32 N          65.5236   96.5984    1.4247 N.ar    1  UNL1       -0.2405
     33 C          65.7017   96.0865    0.0260 C.ar    1  UNL1        0.1103
     34 C          64.5020   95.8304   -0.8373 C.ar    1  UNL1        0.0791
     35 CL         64.6799   95.3185   -2.2360 Cl      1  UNL1       -0.0805
     36 C          58.5322   94.1816   -2.0811 C.3     1  UNL1        0.0602
     37 C          57.7871   92.8837   -1.9801 C.3     1  UNL1        0.0081
     38 C          57.0575   94.1404   -2.3520 C.3     1  UNL1        0.0081
@<TRIPOS>UNITY_ATOM_ATTR
20 1
charge -1
@<TRIPOS>BOND
     1    20    21   ar
     2    21    22   ar
     3    21    10    1
     4    10    11   ar
     5    11    12   ar
     6    12    13    1
     7    12    14   ar
     8    14    15   ar
     9    15    16   ar
    10    16     1    1
    11     1     2    1
    12     2     3    1
    13     3     4    1
    14     4     5    1
    15     5     6    2
    16     6    23    1
    17    23    24   ar
    18    24    28    1
    19    28    29   ar
    20    29    30    1
    21    29    31   ar
    22    31    32   ar
    23    32    33   ar
    24    33    34   ar
    25    34    35    1
    26    24    25   ar
    27    25    26   ar
    28    26    27   ar
    29    27    36    1
    30    36    37    1
    31    37    38    1
    32     6     7    1
    33     4     8    1
    34     8     9    1
    35    16    17   ar
    36    17    18   ar
    37    18    19   ar
    38    19    10   ar
    39    18    14   ar
    40     9     1    1
    41     7     4    1
    42    27    23   ar
    43    38    36    1
    44    34    28   ar
