@<TRIPOS>MOLECULE
*****
 32 35 0 0 0
SMALL
GASTEIGER

@<TRIPOS>ATOM
      1 C          64.0132   90.8929   12.9769 C.ar    1  UNL1        0.1235
      2 C          63.3733   91.6085   11.8244 C.ar    1  UNL1        0.0215
      3 C          62.5848   90.8378   10.8075 C.ar    1  UNL1        0.0202
      4 C          62.4361   89.3514   10.9431 C.ar    1  UNL1        0.0790
      5 C          63.0760   88.6357   12.0956 C.ar    1  UNL1        0.0683
      6 C          63.8646   89.4065   13.1125 C.ar    1  UNL1        0.0361
      7 N          61.6476   88.5806    9.9262 N.ar    1  UNL1       -0.2852
      8 C          60.3440   89.0031    9.3162 C.ar    1  UNL1        0.1023
      9 C          59.9149   87.9356    8.3537 C.ar    1  UNL1        0.1196
     10 N          60.9534   86.8533    8.3688 N.ar    1  UNL1       -0.2220
     11 C          62.0242   87.2519    9.3407 C.ar    1  UNL1        0.1829
     12 N          62.9274   87.1492   12.2313 N.am    1  UNL1       -0.2788
     13 C          63.5194   86.4411   13.4136 C.2     1  UNL1        0.2571
     14 O          64.2600   87.2194   14.4604 O.2     1  UNL1       -0.2692
     15 H          62.4413   86.6384   11.5442 H       1  UNL1        0.1552
     16 C          63.3708   84.9546   13.5493 C.ar    1  UNL1        0.1035
     17 C          63.3342   84.1862   14.8370 C.ar    1  UNL1        0.1105
     18 N          63.1735   82.7322   14.5047 N.ar    1  UNL1       -0.2366
     19 C          63.1107   82.6022   13.0116 C.ar    1  UNL1        0.1109
     20 S          63.2326   83.9757   12.4212 S.2     1  UNL1       -0.0619
     21 C          62.9536   81.3233   12.2438 C.ar    1  UNL1        0.0238
     22 C          62.5703   80.0615   12.9587 C.ar    1  UNL1        0.0020
     23 C          62.4131   78.7826   12.1909 C.ar    1  UNL1        0.0001
     24 C          62.6393   78.7654   10.7081 C.ar    1  UNL1        0.0000
     25 C          63.0226   80.0272    9.9932 C.ar    1  UNL1        0.0001
     26 C          63.1797   81.3061   10.7611 C.ar    1  UNL1        0.0020
     27 S          64.8018   91.6637   13.9938 S.O2    1  UNL1        0.0634
     28 O          65.8232   91.9988   12.9477 O.2     1  UNL1       -0.1528
     29 O          63.7803   91.3286   15.0399 O.2     1  UNL1       -0.1528
     30 C          65.2174   92.3612   16.4617 C.3     1  UNL1        0.1150
     31 N          65.5903   92.4345   15.0107 N.3     1  UNL1       -0.1526
     32 C          66.7518   93.2785   14.5766 C.3     1  UNL1        0.1150
@<TRIPOS>BOND
     1    30    31    1
     2    31    32    1
     3    31    27    1
     4    27    28    2
     5    27    29    2
     6    27     1    1
     7     1     2   ar
     8     2     3   ar
     9     3     4   ar
    10     4     7    1
    11     7     8   ar
    12     8     9   ar
    13     9    10   ar
    14    10    11   ar
    15     4     5   ar
    16     5    12    1
    17    12    13   am
    18    13    14    2
    19    13    16    1
    20    16    17   ar
    21    17    18   ar
    22    18    19   ar
    23    19    21    1
    24    21    22   ar
    25    22    23   ar
    26    23    24   ar
    27    24    25   ar
    28    25    26   ar
    29    19    20   ar
    30     5     6   ar
    31     6     1   ar
    32    11     7   ar
    33    20    16   ar
    34    26    21   ar
    35    12    15    1
@<TRIPOS>MOLECULE
*****
 32 35 0 0 0
SMALL
GASTEIGER

@<TRIPOS>ATOM
      1 C          64.2601   91.4993   11.8563 C.ar    1  UNL1        0.1235
      2 C          63.4987   91.8677   10.6176 C.ar    1  UNL1        0.0215
      3 C          62.6138   90.8557    9.9523 C.ar    1  UNL1        0.0202
      4 C          62.4903   89.4752   10.5256 C.ar    1  UNL1        0.0790
      5 C          63.2516   89.1067   11.7644 C.ar    1  UNL1        0.0683
      6 C          64.1366   90.1187   12.4297 C.ar    1  UNL1        0.0361
      7 N          61.6054   88.4631    9.8603 N.ar    1  UNL1       -0.2852
      8 C          60.1372   88.6154    9.5935 C.ar    1  UNL1        0.1023
      9 C          59.6577   87.3675    8.9133 C.ar    1  UNL1        0.1196
     10 N          60.8295   86.4439    8.7596 N.ar    1  UNL1       -0.2220
     11 C          62.0333   87.1210    9.3449 C.ar    1  UNL1        0.1829
     12 N          63.1281   87.7261   12.3378 N.am    1  UNL1       -0.2788
     13 C          63.7922   87.3930   13.6409 C.2     1  UNL1        0.2571
     14 O          64.5799   88.4405   14.3705 O.2     1  UNL1       -0.2692
     15 H          62.6112   87.0386   11.8590 H       1  UNL1        0.1552
     16 C          63.6687   86.0124   14.2144 C.ar    1  UNL1        0.1035
     17 C          64.0903   85.5883   15.5900 C.ar    1  UNL1        0.1105
     18 N          63.7841   84.1273   15.7387 N.ar    1  UNL1       -0.2366
     19 C          63.1733   83.6487   14.4550 C.ar    1  UNL1        0.1109
     20 S          63.1020   84.8138   13.5129 S.2     1  UNL1       -0.0619
     21 C          62.7144   82.2506   14.1644 C.ar    1  UNL1        0.0238
     22 C          63.6921   81.2290   13.6638 C.ar    1  UNL1        0.0020
     23 C          63.2332   79.8309   13.3732 C.ar    1  UNL1        0.0001
     24 C          61.7965   79.4542   13.5831 C.ar    1  UNL1        0.0000
     25 C          60.8187   80.4757   14.0837 C.ar    1  UNL1        0.0001
     26 C          61.2777   81.8739   14.3743 C.ar    1  UNL1        0.0020
     27 S          65.1450   92.5113   12.5217 S.O2    1  UNL1        0.0634
     28 O          64.7925   91.9382   13.8623 O.2     1  UNL1       -0.1528
     29 O          65.4975   93.0845   11.1810 O.2     1  UNL1       -0.1528
     30 C          66.4171   94.7758   12.4579 C.3     1  UNL1        0.1150
     31 N          66.0299   93.5234   13.1870 N.3     1  UNL1       -0.1526
     32 C          66.5277   93.2831   14.5814 C.3     1  UNL1        0.1150
@<TRIPOS>BOND
     1    30    31    1
     2    31    32    1
     3    31    27    1
     4    27    28    2
     5    27    29    2
     6    27     1    1
     7     1     2   ar
     8     2     3   ar
     9     3     4   ar
    10     4     7    1
    11     7     8   ar
    12     8     9   ar
    13     9    10   ar
    14    10    11   ar
    15     4     5   ar
    16     5    12    1
    17    12    13   am
    18    13    14    2
    19    13    16    1
    20    16    17   ar
    21    17    18   ar
    22    18    19   ar
    23    19    21    1
    24    21    22   ar
    25    22    23   ar
    26    23    24   ar
    27    24    25   ar
    28    25    26   ar
    29    19    20   ar
    30     5     6   ar
    31     6     1   ar
    32    11     7   ar
    33    20    16   ar
    34    26    21   ar
    35    12    15    1
@<TRIPOS>MOLECULE
*****
 32 35 0 0 0
SMALL
GASTEIGER

@<TRIPOS>ATOM
      1 C          65.7703   93.1646   12.6284 C.ar    1  UNL1        0.1235
      2 C          65.9451   93.1679   14.1182 C.ar    1  UNL1        0.0215
      3 C          65.4152   92.0291   14.9381 C.ar    1  UNL1        0.0202
      4 C          64.7106   90.8868   14.2682 C.ar    1  UNL1        0.0790
      5 C          64.5358   90.8835   12.7785 C.ar    1  UNL1        0.0683
      6 C          65.0656   92.0223   11.9586 C.ar    1  UNL1        0.0361
      7 N          64.1807   89.7480   15.0881 N.ar    1  UNL1       -0.2852
      8 C          63.4053   89.8678   16.3666 C.ar    1  UNL1        0.1023
      9 C          63.0786   88.4832   16.8421 C.ar    1  UNL1        0.1196
     10 N          63.6520   87.5076   15.8576 N.ar    1  UNL1       -0.2220
     11 C          64.3332   88.2893   14.7736 C.ar    1  UNL1        0.1829
     12 N          63.8311   89.7412   12.1085 N.am    1  UNL1       -0.2788
     13 C          62.4917   89.9577   11.4690 C.2     1  UNL1        0.2571
     14 O          61.8569   91.3164   11.4994 O.2     1  UNL1       -0.2692
     15 H          64.2477   88.8494   12.0886 H       1  UNL1        0.1552
     16 C          61.7870   88.8154   10.7991 C.ar    1  UNL1        0.1035
     17 C          60.4531   88.2515   11.1898 C.ar    1  UNL1        0.1105
     18 N          60.1341   87.1241   10.2530 N.ar    1  UNL1       -0.2366
     19 C          61.2710   86.9914    9.2835 C.ar    1  UNL1        0.1109
     20 S          62.2925   88.0367    9.6210 S.2     1  UNL1       -0.0619
     21 C          61.3692   85.9893    8.1717 C.ar    1  UNL1        0.0238
     22 C          60.1558   85.6517    7.3569 C.ar    1  UNL1        0.0020
     23 C          60.2539   84.6496    6.2452 C.ar    1  UNL1        0.0001
     24 C          61.5654   83.9851    5.9480 C.ar    1  UNL1        0.0000
     25 C          62.7789   84.3227    6.7627 C.ar    1  UNL1        0.0001
     26 C          62.6807   85.3248    7.8745 C.ar    1  UNL1        0.0020
     27 S          66.3001   94.3034   11.8085 S.O2    1  UNL1        0.0634
     28 O          66.3304   93.4180   10.5981 O.2     1  UNL1       -0.1528
     29 O          66.2699   95.1889   13.0189 O.2     1  UNL1       -0.1528
     30 C          66.6233   96.8557   11.4462 C.3     1  UNL1        0.1150
     31 N          66.8300   95.4423   10.9886 N.3     1  UNL1       -0.1526
     32 C          67.5666   95.1677    9.7111 C.3     1  UNL1        0.1150
@<TRIPOS>BOND
     1    30    31    1
     2    31    32    1
     3    31    27    1
     4    27    28    2
     5    27    29    2
     6    27     1    1
     7     1     2   ar
     8     2     3   ar
     9     3     4   ar
    10     4     7    1
    11     7     8   ar
    12     8     9   ar
    13     9    10   ar
    14    10    11   ar
    15     4     5   ar
    16     5    12    1
    17    12    13   am
    18    13    14    2
    19    13    16    1
    20    16    17   ar
    21    17    18   ar
    22    18    19   ar
    23    19    21    1
    24    21    22   ar
    25    22    23   ar
    26    23    24   ar
    27    24    25   ar
    28    25    26   ar
    29    19    20   ar
    30     5     6   ar
    31     6     1   ar
    32    11     7   ar
    33    20    16   ar
    34    26    21   ar
    35    12    15    1
@<TRIPOS>MOLECULE
*****
 32 35 0 0 0
SMALL
GASTEIGER

@<TRIPOS>ATOM
      1 C          59.6789   88.9755    7.2416 C.ar    1  UNL1        0.1235
      2 C          59.4898   87.5014    7.0389 C.ar    1  UNL1        0.0215
      3 C          60.1815   86.5251    7.9437 C.ar    1  UNL1        0.0202
      4 C          61.0622   87.0230    9.0511 C.ar    1  UNL1        0.0790
      5 C          61.2512   88.4972    9.2538 C.ar    1  UNL1        0.0683
      6 C          60.5596   89.4734    8.3490 C.ar    1  UNL1        0.0361
      7 N          61.7538   86.0468    9.9558 N.ar    1  UNL1       -0.2852
      8 C          61.4978   85.8706   11.4233 C.ar    1  UNL1        0.1023
      9 C          62.4086   84.7903   11.9264 C.ar    1  UNL1        0.1196
     10 N          63.2277   84.2987   10.7699 N.ar    1  UNL1       -0.2220
     11 C          62.8230   85.0753    9.5520 C.ar    1  UNL1        0.1829
     12 N          62.1320   88.9951   10.3612 N.am    1  UNL1       -0.2788
     13 C          61.5415   89.3167   11.7021 C.2     1  UNL1        0.2571
     14 O          60.0703   89.1404   11.9355 O.2     1  UNL1       -0.2692
     15 H          63.0976   89.1109   10.2080 H       1  UNL1        0.1552
     16 C          62.4222   89.8147   12.8095 C.ar    1  UNL1        0.1035
     17 C          62.1588   89.6683   14.2789 C.ar    1  UNL1        0.1105
     18 N          63.2948   90.3096   15.0196 N.ar    1  UNL1       -0.2366
     19 C          64.2601   90.8523   14.0079 C.ar    1  UNL1        0.1109
     20 S          63.7209   90.5464   12.6420 S.2     1  UNL1       -0.0619
     21 C          65.5400   91.5741   14.3091 C.ar    1  UNL1        0.0238
     22 C          66.5996   91.6944   13.2542 C.ar    1  UNL1        0.0020
     23 C          67.8794   92.4162   13.5554 C.ar    1  UNL1        0.0001
     24 C          68.0999   93.0178   14.9117 C.ar    1  UNL1        0.0000
     25 C          67.0403   92.8976   15.9667 C.ar    1  UNL1        0.0001
     26 C          65.7604   92.1757   15.6654 C.ar    1  UNL1        0.0020
     27 S          58.9872   89.9518    6.3368 S.O2    1  UNL1        0.0634
     28 O          57.6577   89.3967    6.7543 O.2     1  UNL1       -0.1528
     29 O          60.3168   90.5068    5.9194 O.2     1  UNL1       -0.1528
     30 C          59.0921   91.9694    4.7034 C.3     1  UNL1        0.1150
     31 N          58.2956   90.9280    5.4321 N.3     1  UNL1       -0.1526
     32 C          56.8074   90.8629    5.2560 C.3     1  UNL1        0.1150
@<TRIPOS>BOND
     1    30    31    1
     2    31    32    1
     3    31    27    1
     4    27    28    2
     5    27    29    2
     6    27     1    1
     7     1     2   ar
     8     2     3   ar
     9     3     4   ar
    10     4     7    1
    11     7     8   ar
    12     8     9   ar
    13     9    10   ar
    14    10    11   ar
    15     4     5   ar
    16     5    12    1
    17    12    13   am
    18    13    14    2
    19    13    16    1
    20    16    17   ar
    21    17    18   ar
    22    18    19   ar
    23    19    21    1
    24    21    22   ar
    25    22    23   ar
    26    23    24   ar
    27    24    25   ar
    28    25    26   ar
    29    19    20   ar
    30     5     6   ar
    31     6     1   ar
    32    11     7   ar
    33    20    16   ar
    34    26    21   ar
    35    12    15    1
@<TRIPOS>MOLECULE
*****
 32 35 0 0 0
SMALL
GASTEIGER

@<TRIPOS>ATOM
      1 C          63.0794   84.4027   13.2027 C.ar    1  UNL1        0.1235
      2 C          63.7540   85.4163   14.0787 C.ar    1  UNL1        0.0215
      3 C          63.7889   86.8584   13.6676 C.ar    1  UNL1        0.0202
      4 C          63.1491   87.2870   12.3804 C.ar    1  UNL1        0.0790
      5 C          62.4744   86.2734   11.5043 C.ar    1  UNL1        0.0683
      6 C          62.4396   84.8313   11.9155 C.ar    1  UNL1        0.0361
      7 N          63.1839   88.7291   11.9692 N.ar    1  UNL1       -0.2852
      8 C          62.9458   89.2575   10.5857 C.ar    1  UNL1        0.1023
      9 C          63.0777   90.7510   10.6308 C.ar    1  UNL1        0.1196
     10 N          63.3974   91.1457   12.0422 N.ar    1  UNL1       -0.2220
     11 C          63.4630   89.8961   12.8694 C.ar    1  UNL1        0.1829
     12 N          61.8346   86.7020   10.2171 N.am    1  UNL1       -0.2788
     13 C          60.5151   87.4150   10.2364 C.2     1  UNL1        0.2571
     14 O          59.8353   87.6996   11.5429 O.2     1  UNL1       -0.2692
     15 H          62.2807   86.5153    9.3595 H       1  UNL1        0.1552
     16 C          59.8752   87.8436    8.9491 C.ar    1  UNL1        0.1035
     17 C          58.8684   87.0592    8.1611 C.ar    1  UNL1        0.1105
     18 N          58.5007   87.8626    6.9488 N.ar    1  UNL1       -0.2366
     19 C          59.2804   89.1435    6.9877 C.ar    1  UNL1        0.1109
     20 S          60.1298   89.1317    8.2239 S.2     1  UNL1       -0.0619
     21 C          59.2210   90.2430    5.9692 C.ar    1  UNL1        0.0238
     22 C          60.4848   90.7570    5.3458 C.ar    1  UNL1        0.0020
     23 C          60.4254   91.8566    4.3273 C.ar    1  UNL1        0.0001
     24 C          59.1022   92.4422    3.9321 C.ar    1  UNL1        0.0000
     25 C          57.8383   91.9282    4.5555 C.ar    1  UNL1        0.0001
     26 C          57.8978   90.8286    5.5740 C.ar    1  UNL1        0.0020
     27 S          63.0445   82.9606   13.6138 S.O2    1  UNL1        0.0634
     28 O          62.3803   82.6067   12.3163 O.2     1  UNL1       -0.1528
     29 O          63.7088   83.3144   14.9113 O.2     1  UNL1       -0.1528
     30 C          61.6949   80.8421   14.2773 C.3     1  UNL1        0.1150
     31 N          63.0097   81.5185   14.0249 N.3     1  UNL1       -0.1526
     32 C          64.2897   80.7527   14.1838 C.3     1  UNL1        0.1150
@<TRIPOS>BOND
     1    30    31    1
     2    31    32    1
     3    31    27    1
     4    27    28    2
     5    27    29    2
     6    27     1    1
     7     1     2   ar
     8     2     3   ar
     9     3     4   ar
    10     4     7    1
    11     7     8   ar
    12     8     9   ar
    13     9    10   ar
    14    10    11   ar
    15     4     5   ar
    16     5    12    1
    17    12    13   am
    18    13    14    2
    19    13    16    1
    20    16    17   ar
    21    17    18   ar
    22    18    19   ar
    23    19    21    1
    24    21    22   ar
    25    22    23   ar
    26    23    24   ar
    27    24    25   ar
    28    25    26   ar
    29    19    20   ar
    30     5     6   ar
    31     6     1   ar
    32    11     7   ar
    33    20    16   ar
    34    26    21   ar
    35    12    15    1
@<TRIPOS>MOLECULE
*****
 32 35 0 0 0
SMALL
GASTEIGER

@<TRIPOS>ATOM
      1 C          64.8647   91.5033   13.7112 C.ar    1  UNL1        0.1235
      2 C          64.5902   91.7538   15.1645 C.ar    1  UNL1        0.0215
      3 C          64.1124   90.6345   16.0413 C.ar    1  UNL1        0.0202
      4 C          63.9091   89.2647   15.4650 C.ar    1  UNL1        0.0790
      5 C          64.1835   89.0142   14.0117 C.ar    1  UNL1        0.0683
      6 C          64.6614   90.1335   13.1349 C.ar    1  UNL1        0.0361
      7 N          63.4313   88.1454   16.3418 N.ar    1  UNL1       -0.2852
      8 C          63.5109   86.6814   16.0248 C.ar    1  UNL1        0.1023
      9 C          62.9187   85.9248   17.1767 C.ar    1  UNL1        0.1196
     10 N          62.4732   86.9211   18.2057 N.ar    1  UNL1       -0.2220
     11 C          62.7899   88.2935   17.6897 C.ar    1  UNL1        0.1829
     12 N          63.9802   87.6443   13.4353 N.am    1  UNL1       -0.2788
     13 C          62.9493   87.4251   12.3680 C.2     1  UNL1        0.2571
     14 O          62.1216   88.5758   11.8771 O.2     1  UNL1       -0.2692
     15 H          64.5234   86.8891   13.7575 H       1  UNL1        0.1552
     16 C          62.7460   86.0553   11.7916 C.ar    1  UNL1        0.1035
     17 C          62.4065   85.7407   10.3648 C.ar    1  UNL1        0.1105
     18 N          62.2971   84.2505   10.2321 N.ar    1  UNL1       -0.2366
     19 C          62.5690   83.6442   11.5770 C.ar    1  UNL1        0.1109
     20 S          62.8464   84.7596   12.5408 S.2     1  UNL1       -0.0619
     21 C          62.5643   82.1798   11.9011 C.ar    1  UNL1        0.0238
     22 C          62.9069   81.1757   10.8406 C.ar    1  UNL1        0.0020
     23 C          62.9022   79.7112   11.1647 C.ar    1  UNL1        0.0001
     24 C          62.5549   79.2506   12.5494 C.ar    1  UNL1        0.0000
     25 C          62.2123   80.2546   13.6100 C.ar    1  UNL1        0.0001
     26 C          62.2170   81.7191   13.2857 C.ar    1  UNL1        0.0020
     27 S          65.3425   92.6226   12.8344 S.O2    1  UNL1        0.0634
     28 O          64.6784   91.9803   11.6527 O.2     1  UNL1       -0.1528
     29 O          66.0067   93.2648   14.0161 O.2     1  UNL1       -0.1528
     30 C          65.7214   93.6205   10.4658 C.3     1  UNL1        0.1150
     31 N          65.8203   93.7419   11.9575 N.3     1  UNL1       -0.1526
     32 C          66.3970   94.9825   12.5725 C.3     1  UNL1        0.1150
@<TRIPOS>BOND
     1    30    31    1
     2    31    32    1
     3    31    27    1
     4    27    28    2
     5    27    29    2
     6    27     1    1
     7     1     2   ar
     8     2     3   ar
     9     3     4   ar
    10     4     7    1
    11     7     8   ar
    12     8     9   ar
    13     9    10   ar
    14    10    11   ar
    15     4     5   ar
    16     5    12    1
    17    12    13   am
    18    13    14    2
    19    13    16    1
    20    16    17   ar
    21    17    18   ar
    22    18    19   ar
    23    19    21    1
    24    21    22   ar
    25    22    23   ar
    26    23    24   ar
    27    24    25   ar
    28    25    26   ar
    29    19    20   ar
    30     5     6   ar
    31     6     1   ar
    32    11     7   ar
    33    20    16   ar
    34    26    21   ar
    35    12    15    1
@<TRIPOS>MOLECULE
*****
 32 35 0 0 0
SMALL
GASTEIGER

@<TRIPOS>ATOM
      1 C          63.3204   85.0520   14.6312 C.ar    1  UNL1        0.1235
      2 C          63.1497   85.4512   16.0669 C.ar    1  UNL1        0.0215
      3 C          63.3318   86.8835   16.4739 C.ar    1  UNL1        0.0202
      4 C          63.6845   87.9164   15.4451 C.ar    1  UNL1        0.0790
      5 C          63.8552   87.5172   14.0093 C.ar    1  UNL1        0.0683
      6 C          63.6732   86.0850   13.6024 C.ar    1  UNL1        0.0361
      7 N          63.8666   89.3487   15.8520 N.ar    1  UNL1       -0.2852
      8 C          64.9276   90.2808   15.3467 C.ar    1  UNL1        0.1023
      9 C          64.7364   91.6085   16.0181 C.ar    1  UNL1        0.1196
     10 N          63.5572   91.4968   16.9384 N.ar    1  UNL1       -0.2220
     11 C          63.0196   90.1002   16.8358 C.ar    1  UNL1        0.1829
     12 N          64.2080   88.5502   12.9804 N.am    1  UNL1       -0.2788
     13 C          63.2491   89.6624   12.6749 C.2     1  UNL1        0.2571
     14 O          61.9374   89.7417   13.3982 O.2     1  UNL1       -0.2692
     15 H          65.0689   88.4982   12.5057 H       1  UNL1        0.1552
     16 C          63.6019   90.6955   11.6460 C.ar    1  UNL1        0.1035
     17 C          62.8870   90.9266   10.3477 C.ar    1  UNL1        0.1105
     18 N          63.5747   92.0527    9.6341 N.ar    1  UNL1       -0.2366
     19 C          64.7146   92.5173   10.4914 C.ar    1  UNL1        0.1109
     20 S          64.7313   91.6785   11.7348 S.2     1  UNL1       -0.0619
     21 C          65.6698   93.6261   10.1630 C.ar    1  UNL1        0.0238
     22 C          67.0157   93.3090    9.5814 C.ar    1  UNL1        0.0020
     23 C          67.9710   94.4178    9.2530 C.ar    1  UNL1        0.0001
     24 C          67.5805   95.8438    9.5061 C.ar    1  UNL1        0.0000
     25 C          66.2347   96.1610   10.0876 C.ar    1  UNL1        0.0001
     26 C          65.2794   95.0521   10.4161 C.ar    1  UNL1        0.0020
     27 S          63.1384   83.6198   14.2242 S.O2    1  UNL1        0.0634
     28 O          62.9615   83.2335   15.6628 O.2     1  UNL1       -0.1528
     29 O          63.3152   84.0061   12.7856 O.2     1  UNL1       -0.1528
     30 C          61.7058   81.4526   14.1990 C.3     1  UNL1        0.1150
     31 N          62.9563   82.1876   13.8172 N.3     1  UNL1       -0.1526
     32 C          64.0248   81.4904   13.0285 C.3     1  UNL1        0.1150
@<TRIPOS>BOND
     1    30    31    1
     2    31    32    1
     3    31    27    1
     4    27    28    2
     5    27    29    2
     6    27     1    1
     7     1     2   ar
     8     2     3   ar
     9     3     4   ar
    10     4     7    1
    11     7     8   ar
    12     8     9   ar
    13     9    10   ar
    14    10    11   ar
    15     4     5   ar
    16     5    12    1
    17    12    13   am
    18    13    14    2
    19    13    16    1
    20    16    17   ar
    21    17    18   ar
    22    18    19   ar
    23    19    21    1
    24    21    22   ar
    25    22    23   ar
    26    23    24   ar
    27    24    25   ar
    28    25    26   ar
    29    19    20   ar
    30     5     6   ar
    31     6     1   ar
    32    11     7   ar
    33    20    16   ar
    34    26    21   ar
    35    12    15    1
@<TRIPOS>MOLECULE
*****
 32 35 0 0 0
SMALL
GASTEIGER

@<TRIPOS>ATOM
      1 C          60.7076   92.4556    2.9374 C.ar    1  UNL1        0.1235
      2 C          62.2030   92.3515    2.9893 C.ar    1  UNL1        0.0215
      3 C          63.0373   92.9985    1.9237 C.ar    1  UNL1        0.0202
      4 C          62.3760   93.7494    0.8062 C.ar    1  UNL1        0.0790
      5 C          60.8806   93.8535    0.7544 C.ar    1  UNL1        0.0683
      6 C          60.0463   93.2065    1.8200 C.ar    1  UNL1        0.0361
      7 N          63.2103   94.3964   -0.2594 N.ar    1  UNL1       -0.2852
      8 C          63.8644   95.7433   -0.1707 C.ar    1  UNL1        0.1023
      9 C          64.5952   95.9894   -1.4573 C.ar    1  UNL1        0.1196
     10 N          64.3928   94.7945   -2.3412 N.ar    1  UNL1       -0.2220
     11 C          63.5369   93.8100   -1.6008 C.ar    1  UNL1        0.1829
     12 N          60.2193   94.6045   -0.3632 N.am    1  UNL1       -0.2788
     13 C          59.4505   93.8608   -1.4147 C.2     1  UNL1        0.2571
     14 O          59.3430   92.3661   -1.3489 O.2     1  UNL1       -0.2692
     15 H          60.2898   95.5855   -0.4064 H       1  UNL1        0.1552
     16 C          58.7892   94.6118   -2.5322 C.ar    1  UNL1        0.1035
     17 C          59.4743   95.5167   -3.5129 C.ar    1  UNL1        0.1105
     18 N          58.4353   96.0539   -4.4521 N.ar    1  UNL1       -0.2366
     19 C          57.1080   95.4809   -4.0517 C.ar    1  UNL1        0.1109
     20 S          57.3268   94.5897   -2.8652 S.2     1  UNL1       -0.0619
     21 C          55.7930   95.7517   -4.7204 C.ar    1  UNL1        0.0238
     22 C          55.7130   95.8234   -6.2165 C.ar    1  UNL1        0.0020
     23 C          54.3980   96.0942   -6.8852 C.ar    1  UNL1        0.0001
     24 C          53.1628   96.2934   -6.0578 C.ar    1  UNL1        0.0000
     25 C          53.2427   96.2217   -4.5616 C.ar    1  UNL1        0.0001
     26 C          54.5578   95.9509   -3.8930 C.ar    1  UNL1        0.0020
     27 S          59.8733   91.8086    4.0030 S.O2    1  UNL1        0.0634
     28 O          58.6372   92.4041    3.3969 O.2     1  UNL1       -0.1528
     29 O          61.1094   91.2131    4.6092 O.2     1  UNL1       -0.1528
     30 C          59.6701   90.2082    6.0395 C.3     1  UNL1        0.1150
     31 N          59.0391   91.1617    5.0686 N.3     1  UNL1       -0.1526
     32 C          57.5738   91.4682    5.1634 C.3     1  UNL1        0.1150
@<TRIPOS>BOND
     1    30    31    1
     2    31    32    1
     3    31    27    1
     4    27    28    2
     5    27    29    2
     6    27     1    1
     7     1     2   ar
     8     2     3   ar
     9     3     4   ar
    10     4     7    1
    11     7     8   ar
    12     8     9   ar
    13     9    10   ar
    14    10    11   ar
    15     4     5   ar
    16     5    12    1
    17    12    13   am
    18    13    14    2
    19    13    16    1
    20    16    17   ar
    21    17    18   ar
    22    18    19   ar
    23    19    21    1
    24    21    22   ar
    25    22    23   ar
    26    23    24   ar
    27    24    25   ar
    28    25    26   ar
    29    19    20   ar
    30     5     6   ar
    31     6     1   ar
    32    11     7   ar
    33    20    16   ar
    34    26    21   ar
    35    12    15    1
@<TRIPOS>MOLECULE
*****
 32 35 0 0 0
SMALL
GASTEIGER

@<TRIPOS>ATOM
      1 C          62.8604   85.3616   12.6413 C.ar    1  UNL1        0.1235
      2 C          61.5899   85.1063   11.8860 C.ar    1  UNL1        0.0215
      3 C          60.9518   86.2107   11.0966 C.ar    1  UNL1        0.0202
      4 C          61.5842   87.5704   11.0625 C.ar    1  UNL1        0.0790
      5 C          62.8548   87.8257   11.8178 C.ar    1  UNL1        0.0683
      6 C          63.4929   86.7213   12.6072 C.ar    1  UNL1        0.0361
      7 N          60.9461   88.6748   10.2732 N.ar    1  UNL1       -0.2852
      8 C          60.7908   88.7167    8.7818 C.ar    1  UNL1        0.1023
      9 C          60.1000   89.9990    8.4235 C.ar    1  UNL1        0.1196
     10 N          59.8283   90.7497    9.6934 N.ar    1  UNL1       -0.2220
     11 C          60.3512   89.9313   10.8365 C.ar    1  UNL1        0.1829
     12 N          63.4873   89.1855   11.7837 N.am    1  UNL1       -0.2788
     13 C          64.0233   89.7951   13.0450 C.2     1  UNL1        0.2571
     14 O          63.9269   89.0451   14.3404 O.2     1  UNL1       -0.2692
     15 H          63.5506   89.6778   10.9335 H       1  UNL1        0.1552
     16 C          64.6558   91.1549   13.0109 C.ar    1  UNL1        0.1035
     17 C          65.0140   91.9907   14.2039 C.ar    1  UNL1        0.1105
     18 N          65.6207   93.2699   13.7082 N.ar    1  UNL1       -0.2366
     19 C          65.6375   93.2245   12.2089 C.ar    1  UNL1        0.1109
     20 S          65.0412   91.9174   11.7780 S.2     1  UNL1       -0.0619
     21 C          66.1590   94.2978   11.3002 C.ar    1  UNL1        0.0238
     22 C          66.8253   93.9283   10.0080 C.ar    1  UNL1        0.0020
     23 C          67.3468   95.0017    9.0993 C.ar    1  UNL1        0.0001
     24 C          67.2022   96.4446    9.4826 C.ar    1  UNL1        0.0000
     25 C          66.5359   96.8142   10.7748 C.ar    1  UNL1        0.0001
     26 C          66.0144   95.7408   11.6835 C.ar    1  UNL1        0.0020
     27 S          63.4985   84.2572   13.4306 S.O2    1  UNL1        0.0634
     28 O          64.1038   83.7080   12.1729 O.2     1  UNL1       -0.1528
     29 O          62.8933   84.8065   14.6884 O.2     1  UNL1       -0.1528
     30 C          64.9220   83.4723   15.4574 C.3     1  UNL1        0.1150
     31 N          64.1367   83.1528   14.2200 N.3     1  UNL1       -0.1526
     32 C          63.9894   81.7289   13.7720 C.3     1  UNL1        0.1150
@<TRIPOS>BOND
     1    30    31    1
     2    31    32    1
     3    31    27    1
     4    27    28    2
     5    27    29    2
     6    27     1    1
     7     1     2   ar
     8     2     3   ar
     9     3     4   ar
    10     4     7    1
    11     7     8   ar
    12     8     9   ar
    13     9    10   ar
    14    10    11   ar
    15     4     5   ar
    16     5    12    1
    17    12    13   am
    18    13    14    2
    19    13    16    1
    20    16    17   ar
    21    17    18   ar
    22    18    19   ar
    23    19    21    1
    24    21    22   ar
    25    22    23   ar
    26    23    24   ar
    27    24    25   ar
    28    25    26   ar
    29    19    20   ar
    30     5     6   ar
    31     6     1   ar
    32    11     7   ar
    33    20    16   ar
    34    26    21   ar
    35    12    15    1
