@<TRIPOS>MOLECULE
*****
 33 37 0 0 0
SMALL
GASTEIGER

@<TRIPOS>ATOM
      1 C          66.1952   92.6162   12.6635 C.ar    1  UNL1        0.0436
      2 C          67.2579   92.6036   13.7219 C.ar    1  UNL1        0.0142
      3 C          67.1479   91.6615   14.8839 C.ar    1  UNL1        0.0010
      4 C          65.9752   90.7319   14.9874 C.ar    1  UNL1       -0.0032
      5 C          64.9125   90.7445   13.9290 C.ar    1  UNL1       -0.0091
      6 C          65.0225   91.6866   12.7670 C.ar    1  UNL1       -0.0101
      7 C          63.9597   91.6993   11.7084 C.3     1  UNL1        0.0444
      8 C          62.7870   90.7697   11.8120 C.3     1  UNL1        0.0749
      9 N          62.6771   89.8275   12.9740 N.3     1  UNL1       -0.2934
     10 C          63.7398   89.8149   14.0325 C.3     1  UNL1        0.0954
     11 H          62.6367   88.8850   12.5861 H       1  UNL1        0.1236
     12 C          66.5249   95.4426    9.1774 C.3     1  UNL1        0.0610
     13 C          65.8645   95.8917   10.4471 C.3     1  UNL1        0.0374
     14 C          65.7546   94.9495   11.6092 C.3     1  UNL1        0.0922
     15 N          66.3051   93.5584   11.5014 N.pl3   1  UNL1       -0.3077
     16 C          66.9655   93.1093   10.2317 C.3     1  UNL1        0.0922
     17 C          67.0754   94.0514    9.0697 C.3     1  UNL1        0.0374
     18 C          67.9831   96.8558    7.5568 C.3     1  UNL1        0.0896
     19 N          66.6349   96.3847    8.0153 N.3     1  UNL1       -0.2715
     20 C          65.3966   96.8557    7.3119 C.3     1  UNL1        0.0896
     21 C          61.7243   90.7823   10.7535 C.3     1  UNL1        0.0886
     22 N          60.5753   89.8212   10.8328 N.3     1  UNL1       -0.2667
     23 C          59.4587   90.0657   11.8042 C.3     1  UNL1        0.0899
     24 C          60.5429   88.6158    9.9408 C.3     1  UNL1        0.0978
     25 C          59.7883   88.6615    8.6452 C.3     1  UNL1        0.0224
     26 C          59.7559   87.4561    7.7531 C.3     1  UNL1        0.0065
     27 C          60.4780   86.2048    8.1566 C.3     1  UNL1        0.0277
     28 C          61.2326   86.1590    9.4522 C.ar    1  UNL1       -0.0073
     29 C          61.9548   84.9078    9.8557 C.ar    1  UNL1       -0.0015
     30 C          62.7095   84.8620   11.1513 C.ar    1  UNL1        0.0203
     31 C          62.7419   86.0675   12.0433 C.ar    1  UNL1        0.0985
     32 N          62.0197   87.3187   11.6398 N.ar    1  UNL1       -0.2471
     33 C          61.2651   87.3645   10.3443 C.ar    1  UNL1        0.0695
@<TRIPOS>BOND
     1    18    19    1
     2    19    20    1
     3    19    12    1
     4    12    13    1
     5    13    14    1
     6    14    15    1
     7    15     1    1
     8     1     2   ar
     9     2     3   ar
    10     3     4   ar
    11     4     5   ar
    12     5     6   ar
    13     6     7    1
    14     7     8    1
    15     8    21    1
    16    21    22    1
    17    22    23    1
    18    24    22    1
    19    24    25    1
    20    25    26    1
    21    26    27    1
    22    27    28    1
    23    28    29   ar
    24    29    30   ar
    25    30    31   ar
    26    31    32   ar
    27    32    33   ar
    28     8     9    1
    29     9    10    1
    30    15    16    1
    31    16    17    1
    32    17    12    1
    33     6     1   ar
    34    33    24    1
    35    10     5    1
    36    33    28   ar
    37     9    11    1
@<TRIPOS>MOLECULE
*****
 33 37 0 0 0
SMALL
GASTEIGER

@<TRIPOS>ATOM
      1 C          65.4002   91.4474   14.5173 C.ar    1  UNL1        0.0436
      2 C          66.3564   92.2104   15.3853 C.ar    1  UNL1        0.0142
      3 C          67.0140   93.4537   14.8640 C.ar    1  UNL1        0.0010
      4 C          66.7154   93.9340   13.4747 C.ar    1  UNL1       -0.0032
      5 C          65.7592   93.1710   12.6067 C.ar    1  UNL1       -0.0091
      6 C          65.1016   91.9277   13.1280 C.ar    1  UNL1       -0.0101
      7 C          64.1453   91.1646   12.2600 C.3     1  UNL1        0.0444
      8 C          63.8467   91.6449   10.8706 C.3     1  UNL1        0.0749
      9 N          64.5044   92.8882   10.3493 N.3     1  UNL1       -0.2934
     10 C          65.4606   93.6512   11.2174 C.3     1  UNL1        0.0954
     11 H          63.7559   93.5338   10.0976 H       1  UNL1        0.1236
     12 C          63.4272   87.7175   16.0812 C.3     1  UNL1        0.0610
     13 C          64.3979   87.6308   14.9410 C.3     1  UNL1        0.0374
     14 C          65.0556   88.8741   14.4197 C.3     1  UNL1        0.0922
     15 N          64.7425   90.2041   15.0386 N.pl3   1  UNL1       -0.3077
     16 C          63.7718   90.2908   16.1788 C.3     1  UNL1        0.0922
     17 C          63.1141   89.0476   16.7001 C.3     1  UNL1        0.0374
     18 C          62.5222   85.3150   15.6835 C.3     1  UNL1        0.0896
     19 N          62.7695   86.4743   16.6025 N.3     1  UNL1       -0.2715
     20 C          62.3592   86.3904   18.0429 C.3     1  UNL1        0.0896
     21 C          62.8905   90.8819   10.0026 C.3     1  UNL1        0.0886
     22 N          61.7692   90.1043   10.6254 N.3     1  UNL1       -0.2667
     23 C          60.7025   90.8178   11.4021 C.3     1  UNL1        0.0899
     24 C          61.7145   88.6132   10.4716 C.3     1  UNL1        0.0978
     25 C          62.5014   87.7342   11.3981 C.3     1  UNL1        0.0224
     26 C          62.4467   86.2432   11.2443 C.3     1  UNL1        0.0065
     27 C          61.6052   85.6310   10.1639 C.3     1  UNL1        0.0277
     28 C          60.8183   86.5099    9.2375 C.ar    1  UNL1       -0.0073
     29 C          59.9768   85.8977    8.1572 C.ar    1  UNL1       -0.0015
     30 C          59.1899   86.7766    7.2307 C.ar    1  UNL1        0.0203
     31 C          59.2446   88.2677    7.3845 C.ar    1  UNL1        0.0985
     32 N          60.0861   88.8799    8.4648 N.ar    1  UNL1       -0.2471
     33 C          60.8730   88.0010    9.3913 C.ar    1  UNL1        0.0695
@<TRIPOS>BOND
     1    18    19    1
     2    19    20    1
     3    19    12    1
     4    12    13    1
     5    13    14    1
     6    14    15    1
     7    15     1    1
     8     1     2   ar
     9     2     3   ar
    10     3     4   ar
    11     4     5   ar
    12     5     6   ar
    13     6     7    1
    14     7     8    1
    15     8    21    1
    16    21    22    1
    17    22    23    1
    18    24    22    1
    19    24    25    1
    20    25    26    1
    21    26    27    1
    22    27    28    1
    23    28    29   ar
    24    29    30   ar
    25    30    31   ar
    26    31    32   ar
    27    32    33   ar
    28     8     9    1
    29     9    10    1
    30    15    16    1
    31    16    17    1
    32    17    12    1
    33     6     1   ar
    34    33    24    1
    35    10     5    1
    36    33    28   ar
    37     9    11    1
@<TRIPOS>MOLECULE
*****
 33 37 0 0 0
SMALL
GASTEIGER

@<TRIPOS>ATOM
      1 C          62.7035   84.4135   11.7880 C.ar    1  UNL1        0.0436
      2 C          62.5346   82.9732   11.4045 C.ar    1  UNL1        0.0142
      3 C          63.1825   81.8977   12.2251 C.ar    1  UNL1        0.0010
      4 C          63.9991   82.2624   13.4293 C.ar    1  UNL1       -0.0032
      5 C          64.1680   83.7027   13.8128 C.ar    1  UNL1       -0.0091
      6 C          63.5202   84.7782   12.9921 C.ar    1  UNL1       -0.0101
      7 C          63.6890   86.2186   13.3756 C.3     1  UNL1        0.0444
      8 C          64.5057   86.5833   14.5798 C.3     1  UNL1        0.0749
      9 N          65.1535   85.5077   15.4005 N.3     1  UNL1       -0.2934
     10 C          64.9847   84.0674   15.0170 C.3     1  UNL1        0.0954
     11 H          64.7927   85.6039   16.3496 H       1  UNL1        0.1236
     12 C          60.7600   87.6403    9.3260 C.3     1  UNL1        0.0610
     13 C          61.7260   86.6878    8.6859 C.3     1  UNL1        0.0374
     14 C          62.3738   85.6122    9.5066 C.3     1  UNL1        0.0922
     15 N          62.0556   85.4891   10.9673 N.pl3   1  UNL1       -0.3077
     16 C          61.0896   86.4415   11.6073 C.3     1  UNL1        0.0922
     17 C          60.4418   87.5171   10.7867 C.3     1  UNL1        0.0374
     18 C          60.1830   90.1457    8.9528 C.3     1  UNL1        0.0896
     19 N          60.1121   88.7158    8.5054 N.3     1  UNL1       -0.2715
     20 C          59.3934   88.3615    7.2374 C.3     1  UNL1        0.0896
     21 C          64.6745   88.0235   14.9633 C.3     1  UNL1        0.0886
     22 N          63.6122   89.0227   14.6122 N.3     1  UNL1       -0.2667
     23 C          62.4011   89.1677   15.4853 C.3     1  UNL1        0.0899
     24 C          63.7610   89.8767   13.3882 C.3     1  UNL1        0.0978
     25 C          63.0149   89.5273   12.1346 C.3     1  UNL1        0.0224
     26 C          63.1636   90.3814   10.9105 C.3     1  UNL1        0.0065
     27 C          64.0584   91.5849   10.9399 C.3     1  UNL1        0.0277
     28 C          64.8045   91.9344   12.1934 C.ar    1  UNL1       -0.0073
     29 C          65.6993   93.1379   12.2228 C.ar    1  UNL1       -0.0015
     30 C          66.4453   93.4873   13.4764 C.ar    1  UNL1        0.0203
     31 C          66.2966   92.6333   14.7004 C.ar    1  UNL1        0.0985
     32 N          65.4018   91.4297   14.6710 N.ar    1  UNL1       -0.2471
     33 C          64.6558   91.0803   13.4176 C.ar    1  UNL1        0.0695
@<TRIPOS>BOND
     1    18    19    1
     2    19    20    1
     3    19    12    1
     4    12    13    1
     5    13    14    1
     6    14    15    1
     7    15     1    1
     8     1     2   ar
     9     2     3   ar
    10     3     4   ar
    11     4     5   ar
    12     5     6   ar
    13     6     7    1
    14     7     8    1
    15     8    21    1
    16    21    22    1
    17    22    23    1
    18    24    22    1
    19    24    25    1
    20    25    26    1
    21    26    27    1
    22    27    28    1
    23    28    29   ar
    24    29    30   ar
    25    30    31   ar
    26    31    32   ar
    27    32    33   ar
    28     8     9    1
    29     9    10    1
    30    15    16    1
    31    16    17    1
    32    17    12    1
    33     6     1   ar
    34    33    24    1
    35    10     5    1
    36    33    28   ar
    37     9    11    1
@<TRIPOS>MOLECULE
*****
 33 37 0 0 0
SMALL
GASTEIGER

@<TRIPOS>ATOM
      1 C          65.3323   91.4562   14.4027 C.ar    1  UNL1        0.0436
      2 C          66.3023   92.2565   15.2203 C.ar    1  UNL1        0.0142
      3 C          66.9436   93.4806   14.6371 C.ar    1  UNL1        0.0010
      4 C          66.6149   93.9044   13.2362 C.ar    1  UNL1       -0.0032
      5 C          65.6449   93.1041   12.4186 C.ar    1  UNL1       -0.0091
      6 C          65.0036   91.8800   13.0019 C.ar    1  UNL1       -0.0101
      7 C          64.0336   91.0796   12.1842 C.3     1  UNL1        0.0444
      8 C          63.7049   91.5034   10.7834 C.3     1  UNL1        0.0749
      9 N          64.3462   92.7276   10.2002 N.3     1  UNL1       -0.2934
     10 C          65.3162   93.5279   11.0178 C.3     1  UNL1        0.0954
     11 H          63.5899   93.3599    9.9384 H       1  UNL1        0.1236
     12 C          63.4083   87.7837   16.1523 C.3     1  UNL1        0.0610
     13 C          64.3689   87.6540   15.0076 C.3     1  UNL1        0.0374
     14 C          65.0103   88.8782   14.4244 C.3     1  UNL1        0.0922
     15 N          64.6910   90.2320   14.9859 N.pl3   1  UNL1       -0.3077
     16 C          63.7303   90.3617   16.1306 C.3     1  UNL1        0.0922
     17 C          63.0890   89.1376   16.7138 C.3     1  UNL1        0.0374
     18 C          62.4329   86.5120   18.1971 C.3     1  UNL1        0.0896
     19 N          62.7669   86.5596   16.7356 N.3     1  UNL1       -0.2715
     20 C          62.4596   85.3831   15.8573 C.3     1  UNL1        0.0896
     21 C          62.7349   90.7031    9.9658 C.3     1  UNL1        0.0886
     22 N          61.7396   89.8097   10.6450 N.3     1  UNL1       -0.2667
     23 C          61.1244   90.2265   11.9481 C.3     1  UNL1        0.0899
     24 C          61.3596   88.4996   10.0213 C.3     1  UNL1        0.0978
     25 C          60.4864   88.4747    8.8019 C.3     1  UNL1        0.0224
     26 C          60.1064   87.1645    8.1782 C.3     1  UNL1        0.0065
     27 C          60.5995   85.8792    8.7739 C.3     1  UNL1        0.0277
     28 C          61.4727   85.9041    9.9932 C.ar    1  UNL1       -0.0073
     29 C          61.9659   84.6188   10.5889 C.ar    1  UNL1       -0.0015
     30 C          62.8392   84.6437   11.8083 C.ar    1  UNL1        0.0203
     31 C          63.2192   85.9538   12.4320 C.ar    1  UNL1        0.0985
     32 N          62.7260   87.2391   11.8363 N.ar    1  UNL1       -0.2471
     33 C          61.8528   87.2143   10.6170 C.ar    1  UNL1        0.0695
@<TRIPOS>BOND
     1    18    19    1
     2    19    20    1
     3    19    12    1
     4    12    13    1
     5    13    14    1
     6    14    15    1
     7    15     1    1
     8     1     2   ar
     9     2     3   ar
    10     3     4   ar
    11     4     5   ar
    12     5     6   ar
    13     6     7    1
    14     7     8    1
    15     8    21    1
    16    21    22    1
    17    22    23    1
    18    24    22    1
    19    24    25    1
    20    25    26    1
    21    26    27    1
    22    27    28    1
    23    28    29   ar
    24    29    30   ar
    25    30    31   ar
    26    31    32   ar
    27    32    33   ar
    28     8     9    1
    29     9    10    1
    30    15    16    1
    31    16    17    1
    32    17    12    1
    33     6     1   ar
    34    33    24    1
    35    10     5    1
    36    33    28   ar
    37     9    11    1
@<TRIPOS>MOLECULE
*****
 33 37 0 0 0
SMALL
GASTEIGER

@<TRIPOS>ATOM
      1 C          61.1068   86.3603    9.3035 C.ar    1  UNL1        0.0436
      2 C          60.5099   85.7274    8.0816 C.ar    1  UNL1        0.0142
      3 C          59.6945   86.5534    7.1315 C.ar    1  UNL1        0.0010
      4 C          59.4760   88.0123    7.4032 C.ar    1  UNL1       -0.0032
      5 C          60.0728   88.6452    8.6252 C.ar    1  UNL1       -0.0091
      6 C          60.8882   87.8192    9.5753 C.ar    1  UNL1       -0.0101
      7 C          61.4852   88.4521   10.7973 C.3     1  UNL1        0.0444
      8 C          61.2667   89.9110   11.0691 C.3     1  UNL1        0.0749
      9 N          60.4512   90.7370   10.1188 N.3     1  UNL1       -0.2934
     10 C          59.8543   90.1041    8.8969 C.3     1  UNL1        0.0954
     11 H          61.0538   91.4932    9.7942 H       1  UNL1        0.1236
     12 C          63.5531   83.8824   12.1542 C.3     1  UNL1        0.0610
     13 C          63.7754   83.7629   10.6755 C.3     1  UNL1        0.0374
     14 C          62.9599   84.5889    9.7253 C.3     1  UNL1        0.0922
     15 N          61.9222   85.5343   10.2537 N.pl3   1  UNL1       -0.3077
     16 C          61.7000   85.6539   11.7323 C.3     1  UNL1        0.0922
     17 C          62.5153   84.8279   12.6825 C.3     1  UNL1        0.0374
     18 C          64.4262   81.5663   12.9434 C.3     1  UNL1        0.0896
     19 N          64.3685   83.0565   13.1044 N.3     1  UNL1       -0.2715
     20 C          65.1262   83.7207   14.2155 C.3     1  UNL1        0.0896
     21 C          61.8635   90.5439   12.2910 C.3     1  UNL1        0.0886
     22 N          63.3145   90.3369   12.6101 N.3     1  UNL1       -0.2667
     23 C          63.7668   89.0573   13.2490 C.3     1  UNL1        0.0899
     24 C          64.3132   91.4095   12.2904 C.3     1  UNL1        0.0978
     25 C          64.4855   91.8761   10.8752 C.3     1  UNL1        0.0224
     26 C          65.4842   92.9486   10.5555 C.3     1  UNL1        0.0065
     27 C          66.3106   93.5546   11.6509 C.3     1  UNL1        0.0277
     28 C          66.1383   93.0880   13.0660 C.ar    1  UNL1       -0.0073
     29 C          66.9646   93.6940   14.1614 C.ar    1  UNL1       -0.0015
     30 C          66.7922   93.2274   15.5766 C.ar    1  UNL1        0.0203
     31 C          65.7935   92.1549   15.8963 C.ar    1  UNL1        0.0985
     32 N          64.9672   91.5489   14.8009 N.ar    1  UNL1       -0.2471
     33 C          65.1395   92.0155   13.3858 C.ar    1  UNL1        0.0695
@<TRIPOS>BOND
     1    18    19    1
     2    19    20    1
     3    19    12    1
     4    12    13    1
     5    13    14    1
     6    14    15    1
     7    15     1    1
     8     1     2   ar
     9     2     3   ar
    10     3     4   ar
    11     4     5   ar
    12     5     6   ar
    13     6     7    1
    14     7     8    1
    15     8    21    1
    16    21    22    1
    17    22    23    1
    18    24    22    1
    19    24    25    1
    20    25    26    1
    21    26    27    1
    22    27    28    1
    23    28    29   ar
    24    29    30   ar
    25    30    31   ar
    26    31    32   ar
    27    32    33   ar
    28     8     9    1
    29     9    10    1
    30    15    16    1
    31    16    17    1
    32    17    12    1
    33     6     1   ar
    34    33    24    1
    35    10     5    1
    36    33    28   ar
    37     9    11    1
@<TRIPOS>MOLECULE
*****
 33 37 0 0 0
SMALL
GASTEIGER

@<TRIPOS>ATOM
      1 C          62.3706   89.7221   10.5904 C.ar    1  UNL1        0.0436
      2 C          61.4763   90.0845    9.4419 C.ar    1  UNL1        0.0142
      3 C          60.5195   89.0710    8.8877 C.ar    1  UNL1        0.0010
      4 C          60.4569   87.6951    9.4819 C.ar    1  UNL1       -0.0032
      5 C          61.3511   87.3327   10.6303 C.ar    1  UNL1       -0.0091
      6 C          62.3080   88.3462   11.1845 C.ar    1  UNL1       -0.0101
      7 C          63.2023   87.9839   12.3330 C.3     1  UNL1        0.0444
      8 C          63.1397   86.6080   12.9272 C.3     1  UNL1        0.0749
      9 N          62.1828   85.5945   12.3729 N.3     1  UNL1       -0.2934
     10 C          61.2885   85.9569   11.2245 C.3     1  UNL1        0.0954
     11 H          61.5749   85.3121   13.1417 H       1  UNL1        0.1236
     12 C          65.2413   92.7626   12.2532 C.3     1  UNL1        0.0610
     13 C          64.5682   91.7859   13.1714 C.3     1  UNL1        0.0374
     14 C          63.6113   90.7724   12.6171 C.3     1  UNL1        0.0922
     15 N          63.3275   90.7356   11.1447 N.pl3   1  UNL1       -0.3077
     16 C          64.0005   91.7123   10.2265 C.3     1  UNL1        0.0922
     17 C          64.9574   92.7258   10.7807 C.3     1  UNL1        0.0374
     18 C          66.4491   95.0550   12.0651 C.3     1  UNL1        0.0896
     19 N          66.1981   93.7761   12.8075 N.3     1  UNL1       -0.2715
     20 C          66.9040   93.5106   14.1041 C.3     1  UNL1        0.0896
     21 C          64.0340   86.2456   14.0756 C.3     1  UNL1        0.0886
     22 N          64.5782   84.8527   14.1919 N.3     1  UNL1       -0.2667
     23 C          66.0263   84.6381   14.5195 C.3     1  UNL1        0.0899
     24 C          63.6746   83.6743   13.9805 C.3     1  UNL1        0.0978
     25 C          62.7669   83.2177   15.0840 C.3     1  UNL1        0.0224
     26 C          61.8632   82.0393   14.8727 C.3     1  UNL1        0.0065
     27 C          61.8671   81.3174   13.5578 C.3     1  UNL1        0.0277
     28 C          62.7748   81.7739   12.4543 C.ar    1  UNL1       -0.0073
     29 C          62.7787   81.0520   11.1395 C.ar    1  UNL1       -0.0015
     30 C          63.6864   81.5086   10.0360 C.ar    1  UNL1        0.0203
     31 C          64.5901   82.6869   10.2473 C.ar    1  UNL1        0.0985
     32 N          64.5862   83.4088   11.5621 N.ar    1  UNL1       -0.2471
     33 C          63.6785   82.9524   12.6657 C.ar    1  UNL1        0.0695
@<TRIPOS>BOND
     1    18    19    1
     2    19    20    1
     3    19    12    1
     4    12    13    1
     5    13    14    1
     6    14    15    1
     7    15     1    1
     8     1     2   ar
     9     2     3   ar
    10     3     4   ar
    11     4     5   ar
    12     5     6   ar
    13     6     7    1
    14     7     8    1
    15     8    21    1
    16    21    22    1
    17    22    23    1
    18    24    22    1
    19    24    25    1
    20    25    26    1
    21    26    27    1
    22    27    28    1
    23    28    29   ar
    24    29    30   ar
    25    30    31   ar
    26    31    32   ar
    27    32    33   ar
    28     8     9    1
    29     9    10    1
    30    15    16    1
    31    16    17    1
    32    17    12    1
    33     6     1   ar
    34    33    24    1
    35    10     5    1
    36    33    28   ar
    37     9    11    1
@<TRIPOS>MOLECULE
*****
 33 37 0 0 0
SMALL
GASTEIGER

@<TRIPOS>ATOM
      1 C          66.5203   93.2050   13.4324 C.ar    1  UNL1        0.0436
      2 C          67.6518   93.4102   14.3955 C.ar    1  UNL1        0.0142
      3 C          67.7201   92.5998   15.6559 C.ar    1  UNL1        0.0010
      4 C          66.6569   91.5843   15.9531 C.ar    1  UNL1       -0.0032
      5 C          65.5255   91.3791   14.9900 C.ar    1  UNL1       -0.0091
      6 C          65.4572   92.1895   13.7297 C.ar    1  UNL1       -0.0101
      7 C          64.3256   91.9843   12.7665 C.3     1  UNL1        0.0444
      8 C          63.2625   90.9688   13.0637 C.3     1  UNL1        0.0749
      9 N          63.3308   90.1585   14.3242 N.3     1  UNL1       -0.2934
     10 C          64.4623   90.3636   15.2873 C.3     1  UNL1        0.0954
     11 H          63.3575   89.1783   14.0430 H       1  UNL1        0.1236
     12 C          66.3153   95.6360    9.6510 C.3     1  UNL1        0.0610
     13 C          66.0905   96.2952   10.9795 C.3     1  UNL1        0.0374
     14 C          66.1588   95.4848   12.2400 C.3     1  UNL1        0.0922
     15 N          66.4520   94.0154   12.1719 N.pl3   1  UNL1       -0.3077
     16 C          66.6768   93.3562   10.8434 C.3     1  UNL1        0.0922
     17 C          66.6085   94.1665    9.5830 C.3     1  UNL1        0.0374
     18 C          67.5099   96.8506    7.6896 C.3     1  UNL1        0.0896
     19 N          66.2470   96.4463    8.3906 N.3     1  UNL1       -0.2715
     20 C          64.9157   96.8523    7.8312 C.3     1  UNL1        0.0896
     21 C          62.1310   90.7637   12.1006 C.3     1  UNL1        0.0886
     22 N          62.3793   90.0874   10.7849 N.3     1  UNL1       -0.2667
     23 C          62.9352   90.8702    9.6324 C.3     1  UNL1        0.0899
     24 C          62.0716   88.6284   10.6217 C.3     1  UNL1        0.0978
     25 C          62.7293   87.6187   11.5150 C.3     1  UNL1        0.0224
     26 C          62.4216   86.1597   11.3517 C.3     1  UNL1        0.0065
     27 C          61.4562   85.7104   10.2953 C.3     1  UNL1        0.0277
     28 C          60.7985   86.7201    9.4020 C.ar    1  UNL1       -0.0073
     29 C          59.8331   86.2708    8.3456 C.ar    1  UNL1       -0.0015
     30 C          59.1753   87.2806    7.4523 C.ar    1  UNL1        0.0203
     31 C          59.4830   88.7395    7.6155 C.ar    1  UNL1        0.0985
     32 N          60.4484   89.1888    8.6720 N.ar    1  UNL1       -0.2471
     33 C          61.1061   88.1792    9.5652 C.ar    1  UNL1        0.0695
@<TRIPOS>BOND
     1    18    19    1
     2    19    20    1
     3    19    12    1
     4    12    13    1
     5    13    14    1
     6    14    15    1
     7    15     1    1
     8     1     2   ar
     9     2     3   ar
    10     3     4   ar
    11     4     5   ar
    12     5     6   ar
    13     6     7    1
    14     7     8    1
    15     8    21    1
    16    21    22    1
    17    22    23    1
    18    24    22    1
    19    24    25    1
    20    25    26    1
    21    26    27    1
    22    27    28    1
    23    28    29   ar
    24    29    30   ar
    25    30    31   ar
    26    31    32   ar
    27    32    33   ar
    28     8     9    1
    29     9    10    1
    30    15    16    1
    31    16    17    1
    32    17    12    1
    33     6     1   ar
    34    33    24    1
    35    10     5    1
    36    33    28   ar
    37     9    11    1
@<TRIPOS>MOLECULE
*****
 33 37 0 0 0
SMALL
GASTEIGER

@<TRIPOS>ATOM
      1 C          66.3231   93.0385   13.7574 C.ar    1  UNL1        0.0436
      2 C          67.3209   93.3978   14.8182 C.ar    1  UNL1        0.0142
      3 C          67.1908   92.8206   16.1965 C.ar    1  UNL1        0.0010
      4 C          66.0630   91.8841   16.5141 C.ar    1  UNL1       -0.0032
      5 C          65.0652   91.5247   15.4533 C.ar    1  UNL1       -0.0091
      6 C          65.1953   92.1019   14.0749 C.ar    1  UNL1       -0.0101
      7 C          64.1975   91.7426   13.0141 C.3     1  UNL1        0.0444
      8 C          63.0697   90.8060   13.3316 C.3     1  UNL1        0.0749
      9 N          62.9396   90.2288   14.7101 N.3     1  UNL1       -0.2934
     10 C          63.9374   90.5882   15.7709 C.3     1  UNL1        0.0954
     11 H          62.9702   89.2143   14.6086 H       1  UNL1        0.1236
     12 C          66.7133   94.7701    9.6222 C.3     1  UNL1        0.0610
     13 C          67.0031   93.3172    9.8573 C.3     1  UNL1        0.0374
     14 C          66.8730   92.7400   11.2357 C.3     1  UNL1        0.0922
     15 N          66.4532   93.6157   12.3789 N.pl3   1  UNL1       -0.3077
     16 C          66.1634   95.0685   12.1438 C.3     1  UNL1        0.0922
     17 C          66.2934   95.6457   10.7655 C.3     1  UNL1        0.0374
     18 C          66.1129   96.6077    7.8866 C.3     1  UNL1        0.0896
     19 N          66.8433   95.3473    8.2438 N.3     1  UNL1       -0.2715
     20 C          67.7038   94.6640    7.2227 C.3     1  UNL1        0.0896
     21 C          62.0719   90.4466   12.2709 C.3     1  UNL1        0.0886
     22 N          62.5285   89.7820   11.0060 N.3     1  UNL1       -0.2667
     23 C          63.2764   90.5707    9.9722 C.3     1  UNL1        0.0899
     24 C          62.2372   88.3289   10.7750 C.3     1  UNL1        0.0978
     25 C          61.4487   87.9040    9.5717 C.3     1  UNL1        0.0224
     26 C          61.1575   86.4508    9.3407 C.3     1  UNL1        0.0065
     27 C          61.6546   85.4224   10.3129 C.3     1  UNL1        0.0277
     28 C          62.4431   85.8472   11.5162 C.ar    1  UNL1       -0.0073
     29 C          62.9402   84.8188   12.4884 C.ar    1  UNL1       -0.0015
     30 C          63.7287   85.2437   13.6917 C.ar    1  UNL1        0.0203
     31 C          64.0200   86.6969   13.9227 C.ar    1  UNL1        0.0985
     32 N          63.5228   87.7253   12.9505 N.ar    1  UNL1       -0.2471
     33 C          62.7344   87.3005   11.7472 C.ar    1  UNL1        0.0695
@<TRIPOS>BOND
     1    18    19    1
     2    19    20    1
     3    19    12    1
     4    12    13    1
     5    13    14    1
     6    14    15    1
     7    15     1    1
     8     1     2   ar
     9     2     3   ar
    10     3     4   ar
    11     4     5   ar
    12     5     6   ar
    13     6     7    1
    14     7     8    1
    15     8    21    1
    16    21    22    1
    17    22    23    1
    18    24    22    1
    19    24    25    1
    20    25    26    1
    21    26    27    1
    22    27    28    1
    23    28    29   ar
    24    29    30   ar
    25    30    31   ar
    26    31    32   ar
    27    32    33   ar
    28     8     9    1
    29     9    10    1
    30    15    16    1
    31    16    17    1
    32    17    12    1
    33     6     1   ar
    34    33    24    1
    35    10     5    1
    36    33    28   ar
    37     9    11    1
@<TRIPOS>MOLECULE
*****
 33 37 0 0 0
SMALL
GASTEIGER

@<TRIPOS>ATOM
      1 C          63.5604   88.3395   15.8107 C.ar    1  UNL1        0.0436
      2 C          63.1859   88.8014   17.1877 C.ar    1  UNL1        0.0142
      3 C          62.8050   87.7995   18.2371 C.ar    1  UNL1        0.0010
      4 C          62.7985   86.3358   17.9093 C.ar    1  UNL1       -0.0032
      5 C          63.1730   85.8739   16.5322 C.ar    1  UNL1       -0.0091
      6 C          63.5540   86.8757   15.4829 C.ar    1  UNL1       -0.0101
      7 C          63.9285   86.4139   14.1058 C.3     1  UNL1        0.0444
      8 C          63.9221   84.9501   13.7780 C.3     1  UNL1        0.0749
      9 N          63.5411   83.9482   14.8274 N.3     1  UNL1       -0.2934
     10 C          63.1666   84.4101   16.2045 C.3     1  UNL1        0.0954
     11 H          64.3354   83.3173   14.9343 H       1  UNL1        0.1236
     12 C          64.7033   91.3450   12.6625 C.3     1  UNL1        0.0610
     13 C          63.4707   90.5083   12.4882 C.3     1  UNL1        0.0374
     14 C          63.0897   89.5064   13.5376 C.3     1  UNL1        0.0922
     15 N          63.9414   89.3413   14.7613 N.pl3   1  UNL1       -0.3077
     16 C          65.1741   90.1781   14.9356 C.3     1  UNL1        0.0922
     17 C          65.5550   91.1799   13.8862 C.3     1  UNL1        0.0374
     18 C          64.4380   92.2987   10.2605 C.3     1  UNL1        0.0896
     19 N          65.0843   92.3469   11.6132 N.3     1  UNL1       -0.2715
     20 C          66.1117   93.3969   11.9166 C.3     1  UNL1        0.0896
     21 C          64.2965   84.4882   12.4010 C.3     1  UNL1        0.0886
     22 N          63.2590   83.8761   11.5072 N.3     1  UNL1       -0.2667
     23 C          62.6164   82.5746   11.8858 C.3     1  UNL1        0.0899
     24 C          62.8641   84.5654   10.2348 C.3     1  UNL1        0.0978
     25 C          63.3709   84.0567    8.9178 C.3     1  UNL1        0.0224
     26 C          62.9759   84.7460    7.6454 C.3     1  UNL1        0.0065
     27 C          62.0742   85.9439    7.6901 C.3     1  UNL1        0.0277
     28 C          61.5675   86.4525    9.0070 C.ar    1  UNL1       -0.0073
     29 C          60.6658   87.6504    9.0517 C.ar    1  UNL1       -0.0015
     30 C          60.1590   88.1590   10.3688 C.ar    1  UNL1        0.0203
     31 C          60.5539   87.4698   11.6411 C.ar    1  UNL1        0.0985
     32 N          61.4556   86.2719   11.5964 N.ar    1  UNL1       -0.2471
     33 C          61.9624   85.7632   10.2795 C.ar    1  UNL1        0.0695
@<TRIPOS>BOND
     1    18    19    1
     2    19    20    1
     3    19    12    1
     4    12    13    1
     5    13    14    1
     6    14    15    1
     7    15     1    1
     8     1     2   ar
     9     2     3   ar
    10     3     4   ar
    11     4     5   ar
    12     5     6   ar
    13     6     7    1
    14     7     8    1
    15     8    21    1
    16    21    22    1
    17    22    23    1
    18    24    22    1
    19    24    25    1
    20    25    26    1
    21    26    27    1
    22    27    28    1
    23    28    29   ar
    24    29    30   ar
    25    30    31   ar
    26    31    32   ar
    27    32    33   ar
    28     8     9    1
    29     9    10    1
    30    15    16    1
    31    16    17    1
    32    17    12    1
    33     6     1   ar
    34    33    24    1
    35    10     5    1
    36    33    28   ar
    37     9    11    1
