@<TRIPOS>MOLECULE
*****
 28 30 0 0 0
SMALL
GASTEIGER

@<TRIPOS>ATOM
      1 N          65.7241   93.5265   12.3385 N.ar    1  UNL1       -0.2475
      2 C          64.8986   92.3513   11.9054 C.ar    1  UNL1        0.2831
      3 O          64.2431   92.3517   10.5562 O.2     1  UNL1       -0.2652
      4 C          64.7286   91.1758   12.8215 C.ar    1  UNL1        0.1527
      5 C          65.3841   91.1754   14.1707 C.ar    1  UNL1        0.1695
      6 N          65.0401   89.8846   14.8529 N.ar    1  UNL1       -0.2094
      7 C          64.1719   89.0872   13.9253 C.ar    1  UNL1        0.1457
      8 N          63.9794   89.8852   12.6698 N.ar    1  UNL1       -0.3045
      9 C          63.1784   89.4662   11.4728 C.3     1  UNL1        0.1321
     10 N          66.2096   92.3505   14.6038 N.ar    1  UNL1       -0.2648
     11 C          66.3796   93.5261   13.6877 C.ar    1  UNL1        0.3349
     12 O          67.2052   94.7013   14.1208 O.2     1  UNL1       -0.2461
     13 C          66.8563   94.6250   10.2742 C.3     1  UNL1        0.0267
     14 C          65.8941   94.7020   11.4224 C.3     1  UNL1        0.1137
     15 C          63.5971   87.7300   14.2041 C.2     1  UNL1        0.0371
     16 C          64.1743   86.5188   13.5334 C.2     1  UNL1        0.0032
     17 C          63.5995   85.1617   13.8123 C.ar    1  UNL1        0.0033
     18 C          63.1595   84.8046   15.2011 C.ar    1  UNL1        0.0033
     19 C          62.5847   83.4475   15.4801 C.ar    1  UNL1        0.0400
     20 C          62.4498   82.4475   14.3703 C.ar    1  UNL1        0.1724
     21 C          62.8898   82.8046   12.9814 C.ar    1  UNL1        0.1724
     22 C          63.4646   84.1617   12.7025 C.ar    1  UNL1        0.0400
     23 O          61.8749   81.0904   14.6493 O.3     1  UNL1       -0.4684
     24 C          60.5121   80.7328   14.1345 C.3     1  UNL1        0.2526
     25 O          62.7549   81.8046   11.8716 O.3     1  UNL1       -0.4684
     26 C          63.6074   81.9277   10.6435 C.3     1  UNL1        0.2526
     27 C          66.8652   92.3502   15.9530 C.3     1  UNL1        0.1121
     28 C          68.3568   92.2353   16.0620 C.3     1  UNL1        0.0267
@<TRIPOS>BOND
     1    13    14    1
     2    14     1    1
     3     1     2   ar
     4     2     3    2
     5     2     4   ar
     6     4     5   ar
     7     5     6   ar
     8     6     7   ar
     9     7    15    1
    10    15    16    2
    11    16    17    1
    12    17    18   ar
    13    18    19   ar
    14    19    20   ar
    15    20    23    1
    16    23    24    1
    17    20    21   ar
    18    21    25    1
    19    25    26    1
    20    21    22   ar
    21     7     8   ar
    22     8     9    1
    23     5    10   ar
    24    10    27    1
    25    27    28    1
    26    10    11   ar
    27    11    12    2
    28    11     1   ar
    29     8     4   ar
    30    22    17   ar
@<TRIPOS>MOLECULE
*****
 28 30 0 0 0
SMALL
GASTEIGER

@<TRIPOS>ATOM
      1 N          65.9538   92.8943   15.1716 N.ar    1  UNL1       -0.2475
      2 C          65.8123   92.6212   13.7035 C.ar    1  UNL1        0.2831
      3 O          66.6569   93.3710   12.7164 O.2     1  UNL1       -0.2652
      4 C          64.8263   91.5983   13.2226 C.ar    1  UNL1        0.1527
      5 C          63.9817   90.8485   14.2097 C.ar    1  UNL1        0.1695
      6 N          63.1015   89.9051   13.4446 N.ar    1  UNL1       -0.2094
      7 C          63.4022   90.0719   11.9845 C.ar    1  UNL1        0.1457
      8 N          64.4681   91.1183   11.8473 N.ar    1  UNL1       -0.3045
      9 C          65.0702   91.6001   10.5607 C.3     1  UNL1        0.1321
     10 N          64.1231   91.1216   15.6778 N.ar    1  UNL1       -0.2648
     11 C          65.1092   92.1446   16.1588 C.ar    1  UNL1        0.3349
     12 O          65.2507   92.4177   17.6270 O.2     1  UNL1       -0.2461
     13 C          68.3841   93.5472   15.8176 C.3     1  UNL1        0.0267
     14 C          66.9399   93.9173   15.6525 C.3     1  UNL1        0.1137
     15 C          62.7512   89.3236   10.8592 C.2     1  UNL1        0.0371
     16 C          62.7896   87.8243   10.8342 C.2     1  UNL1        0.0032
     17 C          62.1386   87.0761    9.7089 C.ar    1  UNL1        0.0033
     18 C          62.7721   85.8261    9.1739 C.ar    1  UNL1        0.0033
     19 C          62.1211   85.0779    8.0485 C.ar    1  UNL1        0.0400
     20 C          60.8367   85.5796    7.4582 C.ar    1  UNL1        0.1724
     21 C          60.2032   86.8296    7.9931 C.ar    1  UNL1        0.1724
     22 C          60.8542   87.5778    9.1185 C.ar    1  UNL1        0.0400
     23 O          60.1858   84.8313    6.3328 O.3     1  UNL1       -0.4684
     24 C          61.0088   83.9427    5.4479 C.3     1  UNL1        0.2526
     25 O          58.9189   87.3314    7.4029 O.3     1  UNL1       -0.4684
     26 C          58.8075   88.7575    6.9516 C.3     1  UNL1        0.2526
     27 C          63.2785   90.3718   16.6651 C.3     1  UNL1        0.1121
     28 C          63.2115   88.8743   16.6099 C.3     1  UNL1        0.0267
@<TRIPOS>BOND
     1    13    14    1
     2    14     1    1
     3     1     2   ar
     4     2     3    2
     5     2     4   ar
     6     4     5   ar
     7     5     6   ar
     8     6     7   ar
     9     7    15    1
    10    15    16    2
    11    16    17    1
    12    17    18   ar
    13    18    19   ar
    14    19    20   ar
    15    20    23    1
    16    23    24    1
    17    20    21   ar
    18    21    25    1
    19    25    26    1
    20    21    22   ar
    21     7     8   ar
    22     8     9    1
    23     5    10   ar
    24    10    27    1
    25    27    28    1
    26    10    11   ar
    27    11    12    2
    28    11     1   ar
    29     8     4   ar
    30    22    17   ar
@<TRIPOS>MOLECULE
*****
 28 30 0 0 0
SMALL
GASTEIGER

@<TRIPOS>ATOM
      1 N          62.0760   81.5423   13.7173 N.ar    1  UNL1       -0.2475
      2 C          62.2837   82.6916   14.6586 C.ar    1  UNL1        0.2831
      3 O          61.7669   82.6123   16.0646 O.2     1  UNL1       -0.2652
      4 C          63.0082   83.9201   14.1940 C.ar    1  UNL1        0.1527
      5 C          63.5249   83.9994   12.7881 C.ar    1  UNL1        0.1695
      6 N          64.1965   85.3295   12.6153 N.ar    1  UNL1       -0.2094
      7 C          64.0947   86.0723   13.9145 C.ar    1  UNL1        0.1457
      8 N          63.3603   85.2012   14.8902 N.ar    1  UNL1       -0.3045
      9 C          63.0351   85.5501   16.3124 C.3     1  UNL1        0.1321
     10 N          63.3173   82.8502   11.8468 N.ar    1  UNL1       -0.2648
     11 C          62.5928   81.6216   12.3114 C.ar    1  UNL1        0.3349
     12 O          62.3851   80.4723   11.3701 O.2     1  UNL1       -0.2461
     13 C          59.8519   80.2918   14.2066 C.3     1  UNL1        0.0267
     14 C          61.3515   80.3138   14.1820 C.3     1  UNL1        0.1137
     15 C          64.6329   87.4451   14.1898 C.2     1  UNL1        0.0371
     16 C          64.0739   88.6301   13.4595 C.2     1  UNL1        0.0032
     17 C          64.6122   90.0029   13.7348 C.ar    1  UNL1        0.0033
     18 C          64.9788   90.3978   15.1347 C.ar    1  UNL1        0.0033
     19 C          65.5171   91.7706   15.4101 C.ar    1  UNL1        0.0400
     20 C          65.6886   92.7484   14.2856 C.ar    1  UNL1        0.1724
     21 C          65.3220   92.3535   12.8858 C.ar    1  UNL1        0.1724
     22 C          64.7838   90.9807   12.6104 C.ar    1  UNL1        0.0400
     23 O          66.2269   94.1212   14.5610 O.3     1  UNL1       -0.4684
     24 C          67.6347   94.2906   15.0501 C.3     1  UNL1        0.2526
     25 O          65.4935   93.3313   11.7613 O.3     1  UNL1       -0.4684
     26 C          66.4254   93.0161   10.6289 C.3     1  UNL1        0.2526
     27 C          63.8341   82.9294   10.4408 C.3     1  UNL1        0.1121
     28 C          63.4619   84.0922    9.5694 C.3     1  UNL1        0.0267
@<TRIPOS>BOND
     1    13    14    1
     2    14     1    1
     3     1     2   ar
     4     2     3    2
     5     2     4   ar
     6     4     5   ar
     7     5     6   ar
     8     6     7   ar
     9     7    15    1
    10    15    16    2
    11    16    17    1
    12    17    18   ar
    13    18    19   ar
    14    19    20   ar
    15    20    23    1
    16    23    24    1
    17    20    21   ar
    18    21    25    1
    19    25    26    1
    20    21    22   ar
    21     7     8   ar
    22     8     9    1
    23     5    10   ar
    24    10    27    1
    25    27    28    1
    26    10    11   ar
    27    11    12    2
    28    11     1   ar
    29     8     4   ar
    30    22    17   ar
@<TRIPOS>MOLECULE
*****
 28 30 0 0 0
SMALL
GASTEIGER

@<TRIPOS>ATOM
      1 N          62.5467   83.8804   13.2356 N.ar    1  UNL1       -0.2475
      2 C          62.5391   85.0368   12.2803 C.ar    1  UNL1        0.2831
      3 O          62.0495   84.8458   10.8754 O.2     1  UNL1       -0.2652
      4 C          63.0210   86.3842   12.7299 C.ar    1  UNL1        0.1527
      5 C          63.5106   86.5753   14.1348 C.ar    1  UNL1        0.1695
      6 N          63.9224   88.0091   14.2913 N.ar    1  UNL1       -0.2094
      7 C          63.6873   88.7043   12.9831 C.ar    1  UNL1        0.1457
      8 N          63.1303   87.7000   12.0180 N.ar    1  UNL1       -0.3045
      9 C          62.7493   87.9651   10.5916 C.3     1  UNL1        0.1321
     10 N          63.5182   85.4189   15.0902 N.ar    1  UNL1       -0.2648
     11 C          63.0362   84.0714   14.6405 C.ar    1  UNL1        0.3349
     12 O          63.0437   82.9150   15.5959 O.2     1  UNL1       -0.2461
     13 C          62.9581   81.6533   11.9626 C.3     1  UNL1        0.0267
     14 C          62.0647   82.5330   12.7860 C.3     1  UNL1        0.1137
     15 C          63.9612   90.1498   12.6911 C.2     1  UNL1        0.0371
     16 C          65.3537   90.6913   12.8247 C.2     1  UNL1        0.0032
     17 C          65.6275   92.1369   12.5327 C.ar    1  UNL1        0.0033
     18 C          65.9686   93.0764   13.6512 C.ar    1  UNL1        0.0033
     19 C          66.2424   94.5220   13.3592 C.ar    1  UNL1        0.0400
     20 C          66.1751   95.0281   11.9488 C.ar    1  UNL1        0.1724
     21 C          65.8340   94.0886   10.8303 C.ar    1  UNL1        0.1724
     22 C          65.5602   92.6430   11.1223 C.ar    1  UNL1        0.0400
     23 O          66.4489   96.4738   11.6569 O.3     1  UNL1       -0.4684
     24 C          67.2544   96.8558   10.4506 C.3     1  UNL1        0.2526
     25 O          65.7667   94.5947    9.4199 O.3     1  UNL1       -0.4684
     26 C          66.9390   94.4145    8.5016 C.3     1  UNL1        0.2526
     27 C          64.0077   85.6099   16.4952 C.3     1  UNL1        0.1121
     28 C          63.1331   86.2868   17.5086 C.3     1  UNL1        0.0267
@<TRIPOS>BOND
     1    13    14    1
     2    14     1    1
     3     1     2   ar
     4     2     3    2
     5     2     4   ar
     6     4     5   ar
     7     5     6   ar
     8     6     7   ar
     9     7    15    1
    10    15    16    2
    11    16    17    1
    12    17    18   ar
    13    18    19   ar
    14    19    20   ar
    15    20    23    1
    16    23    24    1
    17    20    21   ar
    18    21    25    1
    19    25    26    1
    20    21    22   ar
    21     7     8   ar
    22     8     9    1
    23     5    10   ar
    24    10    27    1
    25    27    28    1
    26    10    11   ar
    27    11    12    2
    28    11     1   ar
    29     8     4   ar
    30    22    17   ar
