@<TRIPOS>MOLECULE
*****
 23 25 0 0 0
SMALL
GASTEIGER

@<TRIPOS>ATOM
      1 C          62.7125   89.1300   11.1488 C.2     1  UNL1        0.2270
      2 O          63.1296   88.2549   12.2936 O.2     1  UNL1       -0.2747
      3 N          63.1401   90.5672   11.1090 N.am    1  UNL1       -0.2641
      4 H          62.8663   91.1415   10.3577 H       1  UNL1        0.1567
      5 C          63.9847   91.1294   12.2138 C.ar    1  UNL1        0.1655
      6 N          63.7325   90.9715   13.6840 N.ar    1  UNL1       -0.2239
      7 C          64.8217   91.6927   14.4212 C.ar    1  UNL1        0.0893
      8 C          65.0904   91.8777   15.8853 C.ar    1  UNL1        0.0205
      9 C          66.2845   92.6664   16.3348 C.ar    1  UNL1        0.0130
     10 C          67.2099   93.2700   15.3202 C.ar    1  UNL1        0.0583
     11 CL         68.4040   94.0587   15.7698 Cl      1  UNL1       -0.0822
     12 C          66.9411   93.0850   13.8562 C.ar    1  UNL1        0.0195
     13 C          65.7470   92.2963   13.4067 C.ar    1  UNL1        0.0506
     14 S          65.2297   91.9482   12.0424 S.2     1  UNL1       -0.0514
     15 C          59.0809   89.7727    7.4884 C.3     1  UNL1        0.0000
     16 C          60.0521   88.8892    8.2138 C.3     1  UNL1        0.0005
     17 C          60.8967   89.4514    9.3186 C.3     1  UNL1        0.0091
     18 C          61.8679   88.5678   10.0440 C.3     1  UNL1        0.0769
     19 C          61.9945   87.1222    9.6646 C.3     1  UNL1        0.0091
     20 C          61.1500   86.5600    8.5597 C.3     1  UNL1        0.0005
     21 C          61.9208   85.3333    8.9483 C.3     1  UNL1        0.0000
     22 C          60.5731   85.5718    7.5899 C.3     1  UNL1        0.0000
     23 C          60.1788   87.4435    7.8344 C.3     1  UNL1        0.0000
@<TRIPOS>BOND
     1    15    16    1
     2    16    17    1
     3    17    18    1
     4    18     1    1
     5     1     2    2
     6     1     3   am
     7     3     5    1
     8     5     6   ar
     9     6     7   ar
    10     7     8   ar
    11     8     9   ar
    12     9    10   ar
    13    10    11    1
    14    10    12   ar
    15    12    13   ar
    16    13    14   ar
    17    18    19    1
    18    19    20    1
    19    20    21    1
    20    20    22    1
    21    20    23    1
    22    23    16    1
    23    14     5   ar
    24    13     7   ar
    25     3     4    1
@<TRIPOS>MOLECULE
*****
 23 25 0 0 0
SMALL
GASTEIGER

@<TRIPOS>ATOM
      1 C          64.3466   90.5478   13.2738 C.2     1  UNL1        0.2270
      2 O          63.3169   91.0398   12.3003 O.2     1  UNL1       -0.2747
      3 N          65.6601   91.2611   13.4005 N.am    1  UNL1       -0.2641
      4 H          66.3359   90.9381   14.0394 H       1  UNL1        0.1567
      5 C          65.9439   92.4663   12.5538 C.ar    1  UNL1        0.1655
      6 N          65.8123   93.8971   12.9844 N.ar    1  UNL1       -0.2239
      7 C          66.1962   94.7674   11.8246 C.ar    1  UNL1        0.0893
      8 C          66.2575   96.2576   11.6650 C.ar    1  UNL1        0.0205
      9 C          66.6877   96.8549   10.3581 C.ar    1  UNL1        0.0130
     10 C          67.0566   95.9619    9.2107 C.ar    1  UNL1        0.0583
     11 CL         67.4868   96.5593    7.9037 Cl      1  UNL1       -0.0822
     12 C          66.9953   94.4717    9.3702 C.ar    1  UNL1        0.0195
     13 C          66.5651   93.8745   10.6772 C.ar    1  UNL1        0.0506
     14 S          66.4092   92.4523   11.1279 S.2     1  UNL1       -0.0514
     15 C          64.1169   85.3857   13.8209 C.3     1  UNL1        0.0000
     16 C          63.9480   86.7615   14.3940 C.3     1  UNL1        0.0005
     17 C          64.2318   87.9667   13.5473 C.3     1  UNL1        0.0091
     18 C          64.0629   89.3426   14.1205 C.3     1  UNL1        0.0769
     19 C          63.6101   89.5132   15.5403 C.3     1  UNL1        0.0091
     20 C          63.3263   88.3080   16.3870 C.3     1  UNL1        0.0005
     21 C          63.0222   89.3966   17.3731 C.3     1  UNL1        0.0000
     22 C          62.9369   87.4809   17.5761 C.3     1  UNL1        0.0000
     23 C          63.4953   86.9322   15.8139 C.3     1  UNL1        0.0000
@<TRIPOS>BOND
     1    15    16    1
     2    16    17    1
     3    17    18    1
     4    18     1    1
     5     1     2    2
     6     1     3   am
     7     3     5    1
     8     5     6   ar
     9     6     7   ar
    10     7     8   ar
    11     8     9   ar
    12     9    10   ar
    13    10    11    1
    14    10    12   ar
    15    12    13   ar
    16    13    14   ar
    17    18    19    1
    18    19    20    1
    19    20    21    1
    20    20    22    1
    21    20    23    1
    22    23    16    1
    23    14     5   ar
    24    13     7   ar
    25     3     4    1
@<TRIPOS>MOLECULE
*****
 23 25 0 0 0
SMALL
GASTEIGER

@<TRIPOS>ATOM
      1 C          63.2106   87.5577   12.6413 C.2     1  UNL1        0.2270
      2 O          62.0893   87.1453   11.7342 O.2     1  UNL1       -0.2747
      3 N          63.8956   86.5358   13.4995 N.am    1  UNL1       -0.2641
      4 H          64.6315   86.8065   14.0948 H       1  UNL1        0.1567
      5 C          63.4592   85.1015   13.4507 C.ar    1  UNL1        0.1655
      6 N          62.5001   84.4391   14.3947 N.ar    1  UNL1       -0.2239
      7 C          62.3535   83.0060   13.9768 C.ar    1  UNL1        0.0893
      8 C          61.5414   81.8755   14.5357 C.ar    1  UNL1        0.0205
      9 C          61.5978   80.5217   13.8923 C.ar    1  UNL1        0.0130
     10 C          62.4664   80.2984   12.6899 C.ar    1  UNL1        0.0583
     11 CL         62.5228   78.9446   12.0464 Cl      1  UNL1       -0.0822
     12 C          63.2785   81.4289   12.1310 C.ar    1  UNL1        0.0195
     13 C          63.2221   82.7826   12.7744 C.ar    1  UNL1        0.0506
     14 S          63.9055   84.0778   12.4493 S.2     1  UNL1       -0.0514
     15 C          65.2690   91.5487   15.2557 C.3     1  UNL1        0.0000
     16 C          64.6761   90.9875   13.9973 C.3     1  UNL1        0.0005
     17 C          64.2398   89.5532   13.9486 C.3     1  UNL1        0.0091
     18 C          63.6469   88.9920   12.6901 C.3     1  UNL1        0.0769
     19 C          63.4904   89.8651   11.4805 C.3     1  UNL1        0.0091
     20 C          63.9268   91.2995   11.5293 C.3     1  UNL1        0.0005
     21 C          63.4249   91.2277   10.1176 C.3     1  UNL1        0.0000
     22 C          64.1888   92.7088   11.0878 C.3     1  UNL1        0.0000
     23 C          64.5196   91.8607   12.7877 C.3     1  UNL1        0.0000
@<TRIPOS>BOND
     1    15    16    1
     2    16    17    1
     3    17    18    1
     4    18     1    1
     5     1     2    2
     6     1     3   am
     7     3     5    1
     8     5     6   ar
     9     6     7   ar
    10     7     8   ar
    11     8     9   ar
    12     9    10   ar
    13    10    11    1
    14    10    12   ar
    15    12    13   ar
    16    13    14   ar
    17    18    19    1
    18    19    20    1
    19    20    21    1
    20    20    22    1
    21    20    23    1
    22    23    16    1
    23    14     5   ar
    24    13     7   ar
    25     3     4    1
@<TRIPOS>MOLECULE
*****
 23 25 0 0 0
SMALL
GASTEIGER

@<TRIPOS>ATOM
      1 C          63.9417   88.7099   13.5190 C.2     1  UNL1        0.2270
      2 O          62.9744   88.5280   12.3870 O.2     1  UNL1       -0.2747
      3 N          64.3602   87.5298   14.3449 N.am    1  UNL1       -0.2641
      4 H          64.9950   87.6492   15.0878 H       1  UNL1        0.1567
      5 C          63.8115   86.1677   14.0388 C.ar    1  UNL1        0.1655
      6 N          63.6650   85.5624   12.6742 N.ar    1  UNL1       -0.2239
      7 C          63.0760   84.1924   12.8355 C.ar    1  UNL1        0.0893
      8 C          62.7096   83.1335   11.8383 C.ar    1  UNL1        0.0205
      9 C          62.1256   81.8332   12.3054 C.ar    1  UNL1        0.0130
     10 C          61.9081   81.5918   13.7697 C.ar    1  UNL1        0.0583
     11 CL         61.3241   80.2914   14.2368 Cl      1  UNL1       -0.0822
     12 C          62.2744   82.6506   14.7670 C.ar    1  UNL1        0.0195
     13 C          62.8584   83.9509   14.2999 C.ar    1  UNL1        0.0506
     14 S          63.3130   85.1717   15.0435 S.2     1  UNL1       -0.0514
     15 C          65.1964   92.3840   16.9725 C.3     1  UNL1        0.0000
     16 C          65.1177   91.9090   15.5519 C.3     1  UNL1        0.0005
     17 C          64.5690   90.5469   15.2458 C.3     1  UNL1        0.0091
     18 C          64.4903   90.0720   13.8251 C.3     1  UNL1        0.0769
     19 C          64.9603   90.9591   12.7107 C.3     1  UNL1        0.0091
     20 C          65.5090   92.3211   13.0168 C.3     1  UNL1        0.0005
     21 C          65.6361   92.3189   11.5222 C.3     1  UNL1        0.0000
     22 C          66.1018   93.6824   12.8038 C.3     1  UNL1        0.0000
     23 C          65.5877   92.7961   14.4374 C.3     1  UNL1        0.0000
@<TRIPOS>BOND
     1    15    16    1
     2    16    17    1
     3    17    18    1
     4    18     1    1
     5     1     2    2
     6     1     3   am
     7     3     5    1
     8     5     6   ar
     9     6     7   ar
    10     7     8   ar
    11     8     9   ar
    12     9    10   ar
    13    10    11    1
    14    10    12   ar
    15    12    13   ar
    16    13    14   ar
    17    18    19    1
    18    19    20    1
    19    20    21    1
    20    20    22    1
    21    20    23    1
    22    23    16    1
    23    14     5   ar
    24    13     7   ar
    25     3     4    1
@<TRIPOS>MOLECULE
*****
 23 25 0 0 0
SMALL
GASTEIGER

@<TRIPOS>ATOM
      1 C          63.6620   87.5364   13.3076 C.2     1  UNL1        0.2270
      2 O          63.9176   87.0036   14.6863 O.2     1  UNL1       -0.2747
      3 N          63.1683   86.6188   12.2285 N.am    1  UNL1       -0.2641
      4 H          63.0006   86.9685   11.3237 H       1  UNL1        0.1567
      5 C          62.9302   85.1685   12.5282 C.ar    1  UNL1        0.1655
      6 N          62.3574   84.6130   13.7984 N.ar    1  UNL1       -0.2239
      7 C          62.2962   83.1202   13.6654 C.ar    1  UNL1        0.0893
      8 C          61.8225   82.0478   14.6011 C.ar    1  UNL1        0.0205
      9 C          61.8838   80.6082   14.1844 C.ar    1  UNL1        0.0130
     10 C          62.4188   80.2410   12.8320 C.ar    1  UNL1        0.0583
     11 CL         62.4801   78.8012   12.4154 Cl      1  UNL1       -0.0822
     12 C          62.8926   81.3133   11.8964 C.ar    1  UNL1        0.0195
     13 C          62.8313   82.7530   12.3131 C.ar    1  UNL1        0.0506
     14 S          63.2231   84.0189   11.6102 S.2     1  UNL1       -0.0514
     15 C          63.0136   91.6567   10.2088 C.3     1  UNL1        0.0000
     16 C          63.5759   91.0469   11.4585 C.3     1  UNL1        0.0005
     17 C          63.3378   89.5965   11.7581 C.3     1  UNL1        0.0091
     18 C          63.9002   88.9867   13.0079 C.3     1  UNL1        0.0769
     19 C          64.7006   89.8272   13.9580 C.3     1  UNL1        0.0091
     20 C          64.9387   91.2776   13.6584 C.3     1  UNL1        0.0005
     21 C          65.6723   91.1569   14.9612 C.3     1  UNL1        0.0000
     22 C          65.4316   92.6860   13.8112 C.3     1  UNL1        0.0000
     23 C          64.3764   91.8874   12.4087 C.3     1  UNL1        0.0000
@<TRIPOS>BOND
     1    15    16    1
     2    16    17    1
     3    17    18    1
     4    18     1    1
     5     1     2    2
     6     1     3   am
     7     3     5    1
     8     5     6   ar
     9     6     7   ar
    10     7     8   ar
    11     8     9   ar
    12     9    10   ar
    13    10    11    1
    14    10    12   ar
    15    12    13   ar
    16    13    14   ar
    17    18    19    1
    18    19    20    1
    19    20    21    1
    20    20    22    1
    21    20    23    1
    22    23    16    1
    23    14     5   ar
    24    13     7   ar
    25     3     4    1
@<TRIPOS>MOLECULE
*****
 23 25 0 0 0
SMALL
GASTEIGER

@<TRIPOS>ATOM
      1 C          64.3999   90.8464   12.7527 C.2     1  UNL1        0.2270
      2 O          64.4081   91.4786   11.3924 O.2     1  UNL1       -0.2747
      3 N          63.5469   89.6407   13.0143 N.am    1  UNL1       -0.2641
      4 H          63.5415   89.2258   13.9070 H       1  UNL1        0.1567
      5 C          62.7020   89.0671   11.9156 C.ar    1  UNL1        0.1655
      6 N          62.5552   87.6114   11.5847 N.ar    1  UNL1       -0.2239
      7 C          61.6180   87.4931   10.4194 C.ar    1  UNL1        0.0893
      8 C          61.1025   86.3051    9.6626 C.ar    1  UNL1        0.0205
      9 C          60.1546   86.4996    8.5165 C.ar    1  UNL1        0.0130
     10 C          59.7222   87.8822    8.1272 C.ar    1  UNL1        0.0583
     11 CL         58.7743   88.0767    6.9810 Cl      1  UNL1       -0.0822
     12 C          60.2377   89.0702    8.8841 C.ar    1  UNL1        0.0195
     13 C          61.1856   88.8757   10.0302 C.ar    1  UNL1        0.0506
     14 S          61.8555   89.8484   10.9548 S.2     1  UNL1       -0.0514
     15 C          64.8519   92.6659   17.5989 C.3     1  UNL1        0.0000
     16 C          65.4707   92.3298   16.2745 C.3     1  UNL1        0.0005
     17 C          64.6259   91.7562   15.1758 C.3     1  UNL1        0.0091
     18 C          65.2448   91.4200   13.8514 C.3     1  UNL1        0.0769
     19 C          66.7086   91.6575   13.6258 C.3     1  UNL1        0.0091
     20 C          67.5535   92.2311   14.7245 C.3     1  UNL1        0.0005
     21 C          68.5909   92.0754   13.6523 C.3     1  UNL1        0.0000
     22 C          68.7586   92.7506   15.4508 C.3     1  UNL1        0.0000
     23 C          66.9346   92.5672   16.0488 C.3     1  UNL1        0.0000
@<TRIPOS>BOND
     1    15    16    1
     2    16    17    1
     3    17    18    1
     4    18     1    1
     5     1     2    2
     6     1     3   am
     7     3     5    1
     8     5     6   ar
     9     6     7   ar
    10     7     8   ar
    11     8     9   ar
    12     9    10   ar
    13    10    11    1
    14    10    12   ar
    15    12    13   ar
    16    13    14   ar
    17    18    19    1
    18    19    20    1
    19    20    21    1
    20    20    22    1
    21    20    23    1
    22    23    16    1
    23    14     5   ar
    24    13     7   ar
    25     3     4    1
@<TRIPOS>MOLECULE
*****
 23 25 0 0 0
SMALL
GASTEIGER

@<TRIPOS>ATOM
      1 C          62.6281   88.8857   10.7544 C.2     1  UNL1        0.2270
      2 O          63.1071   90.2318   10.2974 O.2     1  UNL1       -0.2747
      3 N          62.8043   88.4731   12.1857 N.am    1  UNL1       -0.2641
      4 H          62.4899   87.5897   12.4856 H       1  UNL1        0.1567
      5 C          63.4595   89.4065   13.1601 C.ar    1  UNL1        0.1655
      6 N          62.9143   89.8091   14.4983 N.ar    1  UNL1       -0.2239
      7 C          63.8928   90.7526   15.1327 C.ar    1  UNL1        0.0893
      8 C          63.8852   91.4707   16.4496 C.ar    1  UNL1        0.0205
      9 C          65.0276   92.3693   16.8204 C.ar    1  UNL1        0.0130
     10 C          66.1774   92.5499   15.8742 C.ar    1  UNL1        0.0583
     11 CL         67.3198   93.4486   16.2451 Cl      1  UNL1       -0.0822
     12 C          66.1850   91.8318   14.5573 C.ar    1  UNL1        0.0195
     13 C          65.0427   90.9332   14.1865 C.ar    1  UNL1        0.0506
     14 S          64.7748   90.1013   12.9674 S.2     1  UNL1       -0.0514
     15 C          62.7857   84.5881    7.8380 C.3     1  UNL1        0.0000
     16 C          62.0518   85.8035    8.3218 C.3     1  UNL1        0.0005
     17 C          62.7070   86.7369    9.2962 C.3     1  UNL1        0.0091
     18 C          61.9729   87.9523    9.7800 C.3     1  UNL1        0.0769
     19 C          60.5838   88.2343    9.2893 C.3     1  UNL1        0.0091
     20 C          59.9286   87.3009    8.3149 C.3     1  UNL1        0.0005
     21 C          58.8353   88.3144    8.4803 C.3     1  UNL1        0.0000
     22 C          58.8938   86.7195    7.3979 C.3     1  UNL1        0.0000
     23 C          60.6626   86.0855    7.8311 C.3     1  UNL1        0.0000
@<TRIPOS>BOND
     1    15    16    1
     2    16    17    1
     3    17    18    1
     4    18     1    1
     5     1     2    2
     6     1     3   am
     7     3     5    1
     8     5     6   ar
     9     6     7   ar
    10     7     8   ar
    11     8     9   ar
    12     9    10   ar
    13    10    11    1
    14    10    12   ar
    15    12    13   ar
    16    13    14   ar
    17    18    19    1
    18    19    20    1
    19    20    21    1
    20    20    22    1
    21    20    23    1
    22    23    16    1
    23    14     5   ar
    24    13     7   ar
    25     3     4    1
@<TRIPOS>MOLECULE
*****
 23 25 0 0 0
SMALL
GASTEIGER

@<TRIPOS>ATOM
      1 C          63.5681   87.7229   13.3312 C.2     1  UNL1        0.2270
      2 O          62.8066   87.4721   12.0634 O.2     1  UNL1       -0.2747
      3 N          63.9912   86.5701   14.1925 N.am    1  UNL1       -0.2641
      4 H          64.4910   86.7347   15.0246 H       1  UNL1        0.1567
      5 C          63.6527   85.1664   13.7861 C.ar    1  UNL1        0.1655
      6 N          63.8731   84.5636   12.4304 N.ar    1  UNL1       -0.2239
      7 C          63.3910   83.1437   12.4704 C.ar    1  UNL1        0.0893
      8 C          63.3571   82.0655   11.4282 C.ar    1  UNL1        0.0205
      9 C          62.8049   80.7126   11.7665 C.ar    1  UNL1        0.0130
     10 C          62.2866   80.4378   13.1471 C.ar    1  UNL1        0.0583
     11 CL         61.7344   79.0847   13.4853 Cl      1  UNL1       -0.0822
     12 C          62.3206   81.5160   14.1893 C.ar    1  UNL1        0.0195
     13 C          62.8728   82.8689   13.8510 C.ar    1  UNL1        0.0506
     14 S          63.0345   84.1190   14.6641 S.2     1  UNL1       -0.0514
     15 C          65.2481   92.4833   12.0997 C.3     1  UNL1        0.0000
     16 C          64.7466   91.5068   13.1218 C.3     1  UNL1        0.0005
     17 C          64.4081   90.1031   12.7154 C.3     1  UNL1        0.0091
     18 C          63.9065   89.1266   13.7377 C.3     1  UNL1        0.0769
     19 C          63.7434   89.5538   15.1662 C.3     1  UNL1        0.0091
     20 C          64.0819   90.9574   15.5726 C.3     1  UNL1        0.0005
     21 C          63.6451   90.4013   16.8955 C.3     1  UNL1        0.0000
     22 C          64.2686   92.1679   16.4385 C.3     1  UNL1        0.0000
     23 C          64.5834   91.9339   14.5505 C.3     1  UNL1        0.0000
@<TRIPOS>BOND
     1    15    16    1
     2    16    17    1
     3    17    18    1
     4    18     1    1
     5     1     2    2
     6     1     3   am
     7     3     5    1
     8     5     6   ar
     9     6     7   ar
    10     7     8   ar
    11     8     9   ar
    12     9    10   ar
    13    10    11    1
    14    10    12   ar
    15    12    13   ar
    16    13    14   ar
    17    18    19    1
    18    19    20    1
    19    20    21    1
    20    20    22    1
    21    20    23    1
    22    23    16    1
    23    14     5   ar
    24    13     7   ar
    25     3     4    1
@<TRIPOS>MOLECULE
*****
 23 25 0 0 0
SMALL
GASTEIGER

@<TRIPOS>ATOM
      1 C          63.7373   85.0442   13.3034 C.2     1  UNL1        0.2270
      2 O          64.8660   85.1969   14.2796 O.2     1  UNL1       -0.2747
      3 N          63.0836   86.2600   12.7166 N.am    1  UNL1       -0.2641
      4 H          62.3428   86.1598   12.0759 H       1  UNL1        0.1567
      5 C          63.5584   87.6285   13.1059 C.ar    1  UNL1        0.1655
      6 N          63.4752   88.8644   12.2600 N.ar    1  UNL1       -0.2239
      7 C          64.0653   90.0012   13.0408 C.ar    1  UNL1        0.0893
      8 C          64.2526   91.4530   12.7136 C.ar    1  UNL1        0.0205
      9 C          64.8877   92.3715   13.7151 C.ar    1  UNL1        0.0130
     10 C          65.3356   91.8382   15.0436 C.ar    1  UNL1        0.0583
     11 CL         65.9708   92.7568   16.0450 Cl      1  UNL1       -0.0822
     12 C          65.1483   90.3864   15.3707 C.ar    1  UNL1        0.0195
     13 C          64.5131   89.4679   14.3693 C.ar    1  UNL1        0.0506
     14 S          64.1999   88.0015   14.4095 S.2     1  UNL1       -0.0514
     15 C          60.9481   80.7846   14.3410 C.3     1  UNL1        0.0000
     16 C          61.8678   81.5458   13.4329 C.3     1  UNL1        0.0005
     17 C          62.3427   82.9144   13.8222 C.3     1  UNL1        0.0091
     18 C          63.2624   83.6756   12.9141 C.3     1  UNL1        0.0769
     19 C          63.7073   83.0683   11.6167 C.3     1  UNL1        0.0091
     20 C          63.2324   81.6998   11.2274 C.3     1  UNL1        0.0005
     21 C          64.0907   82.0249   10.0410 C.3     1  UNL1        0.0000
     22 C          63.0556   80.4442   10.4261 C.3     1  UNL1        0.0000
     23 C          62.3127   80.9385   12.1355 C.3     1  UNL1        0.0000
@<TRIPOS>BOND
     1    15    16    1
     2    16    17    1
     3    17    18    1
     4    18     1    1
     5     1     2    2
     6     1     3   am
     7     3     5    1
     8     5     6   ar
     9     6     7   ar
    10     7     8   ar
    11     8     9   ar
    12     9    10   ar
    13    10    11    1
    14    10    12   ar
    15    12    13   ar
    16    13    14   ar
    17    18    19    1
    18    19    20    1
    19    20    21    1
    20    20    22    1
    21    20    23    1
    22    23    16    1
    23    14     5   ar
    24    13     7   ar
    25     3     4    1
