@<TRIPOS>MOLECULE
*****
 48 55 0 0 0
SMALL
GASTEIGER

@<TRIPOS>ATOM
      1 N          60.6626   86.5951   10.8380 N.pl3   1  UNL1       -0.3414
      2 C          60.2910   86.9007    9.4173 C.ar    1  UNL1        0.1432
      3 N          59.7662   85.8122    8.5286 N.ar    1  UNL1       -0.2265
      4 C          59.3946   86.1179    7.1078 C.ar    1  UNL1        0.1193
      5 C          59.5477   87.5119    6.5758 C.ar    1  UNL1        0.1020
      6 N          60.0725   88.6004    7.4645 N.ar    1  UNL1       -0.2885
      7 C          60.4441   88.2948    8.8852 C.ar    1  UNL1        0.1142
      8 C          60.9312   89.5635    9.5201 C.ar    1  UNL1        0.1036
      9 N          60.8606   90.6533    8.4918 N.ar    1  UNL1       -0.2305
     10 C          60.3298   90.0580    7.2213 C.ar    1  UNL1        0.1239
     11 H          60.5621   85.6802   11.1872 H       1  UNL1        0.1438
     12 H          61.0070   87.3096   11.4213 H       1  UNL1        0.1438
     13 C          61.4056   89.7159   10.9350 C.ar    1  UNL1        0.0482
     14 C          60.5318   89.2726   12.0708 C.ar    1  UNL1        0.0039
     15 C          61.0062   89.4248   13.4856 C.ar    1  UNL1        0.0017
     16 C          62.3543   90.0205   13.7647 C.ar    1  UNL1        0.0199
     17 C          62.8286   90.1728   15.1795 C.ar    1  UNL1        0.0031
     18 C          64.1767   90.7684   15.4585 C.ar    1  UNL1        0.0191
     19 C          65.0505   91.2117   14.3227 C.ar    1  UNL1        0.0813
     20 N          64.5761   91.0594   12.9079 N.ar    1  UNL1       -0.2431
     21 C          63.2280   90.4638   12.6289 C.ar    1  UNL1        0.1086
     22 C          62.7536   90.3115   11.2140 C.ar    1  UNL1        0.1590
     23 F          63.6274   90.7548   10.0782 F       1  UNL1       -0.2025
     24 C          66.3986   91.8073   14.6018 C.ar    1  UNL1        0.0177
     25 C          67.5341   91.5719   13.6503 C.ar    1  UNL1        0.0015
     26 C          68.8822   92.1675   13.9294 C.ar    1  UNL1        0.0000
     27 C          69.0948   92.9985   15.1599 C.ar    1  UNL1        0.0000
     28 C          67.9593   93.2339   16.1114 C.ar    1  UNL1        0.0000
     29 C          66.6112   92.6383   15.8323 C.ar    1  UNL1        0.0015
     30 C          60.0973   90.7916    5.9337 C.3     1  UNL1        0.0573
     31 C          58.7064   91.1905    5.5384 C.3     1  UNL1        0.0080
     32 C          58.4739   91.9241    4.2509 C.3     1  UNL1        0.0111
     33 C          59.6323   92.2587    3.3586 C.3     1  UNL1        0.0931
     34 C          61.0232   91.8598    3.7538 C.3     1  UNL1        0.0111
     35 C          61.2557   91.1262    5.0414 C.3     1  UNL1        0.0080
     36 C          59.3999   92.9922    2.0710 C.2     1  UNL1        0.2839
     37 O          59.7441   94.4483    1.9647 O.2     1  UNL1       -0.2567
     38 N          58.8231   92.2697    0.8898 N.am    1  UNL1       -0.1709
     39 H          58.5972   91.3140    0.9596 H       1  UNL1        0.2543
     40 C          58.5906   93.0032   -0.3978 C.2     1  UNL1        0.4262
     41 N          57.2895   93.5946   -0.8531 N.2     1  UNL1       -0.0676
     42 C          57.5132   94.2310   -2.1928 C.2     1  UNL1        0.1887
     43 C          56.5922   94.9653   -3.1216 C.2     1  UNL1        0.0395
     44 C          57.1105   95.5015   -4.4230 C.2     1  UNL1       -0.0010
     45 C          58.5499   95.3034   -4.7958 C.2     1  UNL1       -0.0181
     46 C          59.4710   94.5691   -3.8671 C.3     1  UNL1        0.0932
     47 C          58.9526   94.0329   -2.5656 C.2     1  UNL1        0.1744
     48 N          59.6185   93.2741   -1.4562 N.2     1  UNL1       -0.0714
@<TRIPOS>BOND
     1     1     2    1
     2     2     3   ar
     3     3     4   ar
     4     4     5   ar
     5     5     6   ar
     6     6     7   ar
     7     7     8   ar
     8     8    13    1
     9    13    14   ar
    10    14    15   ar
    11    15    16   ar
    12    16    17   ar
    13    17    18   ar
    14    18    19   ar
    15    19    24    1
    16    24    25   ar
    17    25    26   ar
    18    26    27   ar
    19    27    28   ar
    20    28    29   ar
    21    19    20   ar
    22    20    21   ar
    23    21    22   ar
    24    22    23    1
    25     8     9   ar
    26     9    10   ar
    27    30    10    1
    28    30    31    1
    29    31    32    1
    30    32    33    1
    31    33    36    1
    32    36    37    2
    33    36    38   am
    34    38    40    1
    35    40    41    2
    36    41    42    1
    37    42    43    2
    38    43    44    1
    39    44    45    2
    40    45    46    1
    41    46    47    1
    42    47    48    2
    43    33    34    1
    44    34    35    1
    45     7     2   ar
    46    22    13   ar
    47    35    30    1
    48    10     6   ar
    49    48    40    1
    50    21    16   ar
    51    47    42    1
    52    29    24   ar
    53     1    11    1
    54     1    12    1
    55    38    39    1
@<TRIPOS>MOLECULE
*****
 48 55 0 0 0
SMALL
GASTEIGER

@<TRIPOS>ATOM
      1 N          60.8619   96.7169   -4.9211 N.pl3   1  UNL1       -0.3414
      2 C          61.4334   96.2317   -3.6220 C.ar    1  UNL1        0.1432
      3 N          62.8047   96.6662   -3.1970 N.ar    1  UNL1       -0.2265
      4 C          63.3762   96.1808   -1.8978 C.ar    1  UNL1        0.1193
      5 C          62.5764   95.2611   -1.0236 C.ar    1  UNL1        0.1020
      6 N          61.2051   94.8266   -1.4485 N.ar    1  UNL1       -0.2885
      7 C          60.6336   95.3119   -2.7477 C.ar    1  UNL1        0.1142
      8 C          59.2648   94.7182   -2.9025 C.ar    1  UNL1        0.1036
      9 N          58.9902   93.8660   -1.6990 N.ar    1  UNL1       -0.2305
     10 C          60.1895   93.9330   -0.8004 C.ar    1  UNL1        0.1239
     11 H          61.3868   97.3206   -5.4949 H       1  UNL1        0.1438
     12 H          59.9618   96.4317   -5.2001 H       1  UNL1        0.1438
     13 C          58.3338   94.9381   -4.0580 C.ar    1  UNL1        0.0482
     14 C          58.8525   94.8643   -5.4635 C.ar    1  UNL1        0.0039
     15 C          57.9216   95.0842   -6.6190 C.ar    1  UNL1        0.0017
     16 C          56.4720   95.3779   -6.3689 C.ar    1  UNL1        0.0199
     17 C          55.5411   95.5978   -7.5243 C.ar    1  UNL1        0.0031
     18 C          54.0916   95.8915   -7.2742 C.ar    1  UNL1        0.0191
     19 C          53.5730   95.9653   -5.8687 C.ar    1  UNL1        0.0813
     20 N          54.5038   95.7454   -4.7133 N.ar    1  UNL1       -0.2431
     21 C          55.9533   95.4517   -4.9634 C.ar    1  UNL1        0.1086
     22 C          56.8843   95.2318   -3.8079 C.ar    1  UNL1        0.1590
     23 F          56.3657   95.3056   -2.4023 F       1  UNL1       -0.2025
     24 C          52.1234   96.2590   -5.6186 C.ar    1  UNL1        0.0177
     25 C          51.6477   96.5574   -4.2277 C.ar    1  UNL1        0.0015
     26 C          50.1981   96.8511   -3.9777 C.ar    1  UNL1        0.0000
     27 C          49.2242   96.8464   -5.1186 C.ar    1  UNL1        0.0000
     28 C          49.7000   96.5480   -6.5095 C.ar    1  UNL1        0.0000
     29 C          51.1495   96.2543   -6.7595 C.ar    1  UNL1        0.0015
     30 C          60.3456   93.2299    0.5154 C.3     1  UNL1        0.0573
     31 C          61.6180   92.5002    0.8294 C.3     1  UNL1        0.0080
     32 C          61.7742   91.7971    2.1451 C.3     1  UNL1        0.0111
     33 C          60.6580   91.8236    3.1469 C.3     1  UNL1        0.0931
     34 C          59.3856   92.5533    2.8328 C.3     1  UNL1        0.0111
     35 C          59.2294   93.2564    1.5171 C.3     1  UNL1        0.0080
     36 C          60.8141   91.1205    4.4626 C.2     1  UNL1        0.2839
     37 O          62.1826   90.8896    5.0318 O.2     1  UNL1       -0.2567
     38 N          59.6018   90.6482    5.2091 N.am    1  UNL1       -0.1709
     39 H          58.7037   90.7998    4.8355 H       1  UNL1        0.2543
     40 C          59.7580   89.9451    6.5249 C.2     1  UNL1        0.4262
     41 N          59.6451   88.4669    6.7535 N.2     1  UNL1       -0.0676
     42 C          59.8718   88.2050    8.2130 C.2     1  UNL1        0.1887
     43 C          59.8805   86.9379    9.0158 C.2     1  UNL1        0.0395
     44 C          60.1422   86.9871   10.4919 C.2     1  UNL1       -0.0010
     45 C          60.3951   88.3034   11.1654 C.2     1  UNL1       -0.0181
     46 C          60.3864   89.5705   10.3626 C.3     1  UNL1        0.0932
     47 C          60.1247   89.5212    8.8863 C.2     1  UNL1        0.1744
     48 N          60.0544   90.5967    7.8430 N.2     1  UNL1       -0.0714
@<TRIPOS>BOND
     1     1     2    1
     2     2     3   ar
     3     3     4   ar
     4     4     5   ar
     5     5     6   ar
     6     6     7   ar
     7     7     8   ar
     8     8    13    1
     9    13    14   ar
    10    14    15   ar
    11    15    16   ar
    12    16    17   ar
    13    17    18   ar
    14    18    19   ar
    15    19    24    1
    16    24    25   ar
    17    25    26   ar
    18    26    27   ar
    19    27    28   ar
    20    28    29   ar
    21    19    20   ar
    22    20    21   ar
    23    21    22   ar
    24    22    23    1
    25     8     9   ar
    26     9    10   ar
    27    30    10    1
    28    30    31    1
    29    31    32    1
    30    32    33    1
    31    33    36    1
    32    36    37    2
    33    36    38   am
    34    38    40    1
    35    40    41    2
    36    41    42    1
    37    42    43    2
    38    43    44    1
    39    44    45    2
    40    45    46    1
    41    46    47    1
    42    47    48    2
    43    33    34    1
    44    34    35    1
    45     7     2   ar
    46    22    13   ar
    47    35    30    1
    48    10     6   ar
    49    48    40    1
    50    21    16   ar
    51    47    42    1
    52    29    24   ar
    53     1    11    1
    54     1    12    1
    55    38    39    1
