@<TRIPOS>MOLECULE
*****
 49 53 0 0 0
SMALL
GASTEIGER

@<TRIPOS>ATOM
      1 N          59.6861   88.4259    7.7682 N.am    1  UNL1       -0.2724
      2 C          60.3746   88.8003    9.0472 C.2     1  UNL1        0.2491
      3 O          60.1285   90.1444    9.6659 O.2     1  UNL1       -0.2727
      4 C          59.9323   87.0817    7.1496 C.3     1  UNL1        0.1111
      5 C          60.5766   85.9923    7.9545 C.3     1  UNL1        0.0939
      6 C          61.5686   84.4800    6.0893 C.3     1  UNL1        0.0897
      7 N          61.7290   85.2199    7.3843 N.3     1  UNL1       -0.2688
      8 C          63.0420   85.1874    8.1089 C.3     1  UNL1        0.0897
      9 C          58.7516   89.3956    7.1078 C.3     1  UNL1        0.1202
     10 C          59.2485   90.2849    6.0067 C.ar    1  UNL1       -0.0023
     11 C          60.6970   90.2592    5.6180 C.ar    1  UNL1       -0.0026
     12 C          61.1938   91.1484    4.5169 C.ar    1  UNL1       -0.0003
     13 C          60.2422   92.0632    3.8045 C.ar    1  UNL1       -0.0000
     14 C          58.7937   92.0888    4.1932 C.ar    1  UNL1       -0.0003
     15 C          58.2968   91.1997    5.2943 C.ar    1  UNL1       -0.0026
     16 C          60.7391   92.9524    2.7034 C.ar    1  UNL1       -0.0000
     17 C          60.0234   94.2336    2.3933 C.ar    1  UNL1       -0.0001
     18 C          60.5203   95.1228    1.2921 C.ar    1  UNL1        0.0039
     19 C          61.7330   94.7308    0.5011 C.ar    1  UNL1        0.0714
     20 C          62.4487   93.4495    0.8113 C.ar    1  UNL1        0.0039
     21 C          61.9518   92.5604    1.9124 C.ar    1  UNL1       -0.0001
     22 C          62.2299   95.6199   -0.6000 C.3     1  UNL1        0.4186
     23 F          62.7268   96.5090   -1.7011 F       1  UNL1       -0.1659
     24 F          60.8939   96.2996   -0.6541 F       1  UNL1       -0.1659
     25 F          63.5659   94.9402   -0.5458 F       1  UNL1       -0.1659
     26 C          61.3092   87.8305    9.7076 C.3     1  UNL1        0.1934
     27 N          62.1510   88.2718   10.8680 N.ar    1  UNL1       -0.2979
     28 C          62.4939   89.7224   11.0371 C.ar    1  UNL1        0.0786
     29 C          63.3357   90.1637   12.1975 C.ar    1  UNL1        0.0574
     30 C          63.8345   89.1546   13.1889 C.ar    1  UNL1        0.2786
     31 O          64.6763   89.5960   14.3494 O.2     1  UNL1       -0.2654
     32 N          63.4916   87.7042   13.0199 N.ar    1  UNL1       -0.1847
     33 C          62.6498   87.2628   11.8594 C.ar    1  UNL1        0.1750
     34 C          63.6786   91.6142   12.3665 C.3     1  UNL1        0.0622
     35 C          65.0296   92.1185   11.9536 C.ar    1  UNL1        0.0220
     36 C          66.1997   92.3511   12.8628 C.ar    1  UNL1        0.1177
     37 N          67.3409   92.8552   12.0301 N.ar    1  UNL1       -0.1679
     38 N          66.8761   92.9342   10.6060 N.ar    1  UNL1       -0.2477
     39 C          67.6958   93.3887    9.4349 C.3     1  UNL1        0.1537
     40 C          65.4476   92.4789   10.5588 C.ar    1  UNL1        0.0927
     41 S          62.3069   85.8124   11.6904 S.3     1  UNL1       -0.0724
     42 C          62.7020   84.8205   12.7441 C.3     1  UNL1        0.0913
     43 C          62.7216   83.3550   12.4249 C.ar    1  UNL1       -0.0108
     44 C          63.1894   82.8868   11.0789 C.ar    1  UNL1       -0.0011
     45 C          63.2090   81.4212   10.7597 C.ar    1  UNL1        0.0293
     46 C          62.7607   80.4239   11.7866 C.ar    1  UNL1        0.1401
     47 F          62.7802   78.9584   11.4675 F       1  UNL1       -0.2042
     48 C          62.2928   80.8922   13.1327 C.ar    1  UNL1        0.0293
     49 C          62.2732   82.3577   13.4518 C.ar    1  UNL1       -0.0011
@<TRIPOS>BOND
     1     6     7    1
     2     7     8    1
     3     7     5    1
     4     5     4    1
     5     4     1    1
     6     1     9    1
     7     9    10    1
     8    10    11   ar
     9    11    12   ar
    10    12    13   ar
    11    13    16    1
    12    16    17   ar
    13    17    18   ar
    14    18    19   ar
    15    19    22    1
    16    22    23    1
    17    22    24    1
    18    22    25    1
    19    19    20   ar
    20    20    21   ar
    21    13    14   ar
    22    14    15   ar
    23     1     2   am
    24     2     3    2
    25     2    26    1
    26    26    27    1
    27    27    28   ar
    28    28    29   ar
    29    29    34    1
    30    34    35    1
    31    35    36   ar
    32    36    37   ar
    33    37    38   ar
    34    38    39    1
    35    38    40   ar
    36    29    30   ar
    37    30    31    2
    38    30    32   ar
    39    32    33   ar
    40    33    41    1
    41    41    42    1
    42    42    43    1
    43    43    44   ar
    44    44    45   ar
    45    45    46   ar
    46    46    47    1
    47    46    48   ar
    48    48    49   ar
    49    15    10   ar
    50    33    27   ar
    51    49    43   ar
    52    21    16   ar
    53    40    35   ar
@<TRIPOS>MOLECULE
*****
 49 53 0 0 0
SMALL
GASTEIGER

@<TRIPOS>ATOM
      1 N          63.6286   88.3470   15.6994 N.am    1  UNL1       -0.2724
      2 C          63.6379   88.4872   14.2060 C.2     1  UNL1        0.2491
      3 O          63.8718   87.2841   13.3412 O.2     1  UNL1       -0.2727
      4 C          63.3947   89.5502   16.5642 C.3     1  UNL1        0.1111
      5 C          63.4622   90.9257   15.9697 C.3     1  UNL1        0.0939
      6 C          65.8428   91.4230   15.0556 C.3     1  UNL1        0.0897
      7 N          64.7405   91.7079   16.0324 N.3     1  UNL1       -0.2688
      8 C          64.9166   92.7750   17.0717 C.3     1  UNL1        0.0897
      9 C          63.8531   87.0038   16.3280 C.3     1  UNL1        0.1202
     10 C          63.6890   85.7565   15.5110 C.ar    1  UNL1       -0.0023
     11 C          62.3609   85.0612   15.4623 C.ar    1  UNL1       -0.0026
     12 C          62.1968   83.8139   14.6453 C.ar    1  UNL1       -0.0003
     13 C          63.3610   83.2620   13.8771 C.ar    1  UNL1       -0.0000
     14 C          64.6892   83.9573   13.9259 C.ar    1  UNL1       -0.0003
     15 C          64.8532   85.2045   14.7428 C.ar    1  UNL1       -0.0026
     16 C          63.1969   82.0147   13.0601 C.ar    1  UNL1       -0.0000
     17 C          63.4225   82.0540   11.5778 C.ar    1  UNL1       -0.0001
     18 C          63.2585   80.8067   10.7608 C.ar    1  UNL1        0.0039
     19 C          62.8688   79.5201   11.4262 C.ar    1  UNL1        0.0714
     20 C          62.6431   79.4809   12.9087 C.ar    1  UNL1        0.0039
     21 C          62.8072   80.7281   13.7256 C.ar    1  UNL1       -0.0001
     22 C          62.7047   78.2729   10.6093 C.3     1  UNL1        0.4186
     23 F          62.5406   77.0256    9.7925 F       1  UNL1       -0.1659
     24 F          62.5071   79.1056    9.3775 F       1  UNL1       -0.1659
     25 F          62.9022   77.4401   11.8412 F       1  UNL1       -0.1659
     26 C          63.4134   89.8306   13.5774 C.3     1  UNL1        0.1934
     27 N          62.7244   89.9311   12.2488 N.ar    1  UNL1       -0.2979
     28 C          61.6858   88.9195   11.8640 C.ar    1  UNL1        0.0786
     29 C          60.9968   89.0201   10.5354 C.ar    1  UNL1        0.0574
     30 C          61.3465   90.1323    9.5915 C.ar    1  UNL1        0.2786
     31 O          60.6576   90.2329    8.2629 O.2     1  UNL1       -0.2654
     32 N          62.3851   91.1438    9.9763 N.ar    1  UNL1       -0.1847
     33 C          63.0741   91.0433   11.3049 C.ar    1  UNL1        0.1750
     34 C          59.9583   88.0086   10.1506 C.3     1  UNL1        0.0622
     35 C          60.2135   87.0681    9.0102 C.ar    1  UNL1        0.0220
     36 C          59.2013   86.6081    8.0033 C.ar    1  UNL1        0.1177
     37 N          59.8880   85.6783    7.0473 N.ar    1  UNL1       -0.1679
     38 N          61.3246   85.5636    7.4634 N.ar    1  UNL1       -0.2477
     39 C          62.3755   84.7354    6.7855 C.3     1  UNL1        0.1537
     40 C          61.5257   86.4226    8.6766 C.ar    1  UNL1        0.0927
     41 S          64.1126   92.0548   11.6897 S.3     1  UNL1       -0.0724
     42 C          65.4892   91.9784   11.0987 C.3     1  UNL1        0.0913
     43 C          66.1092   93.1969   10.4815 C.ar    1  UNL1       -0.0108
     44 C          65.5214   94.5518   10.7435 C.ar    1  UNL1       -0.0011
     45 C          66.1414   95.7704   10.1263 C.ar    1  UNL1        0.0293
     46 C          67.3490   95.6339    9.2471 C.ar    1  UNL1        0.1401
     47 F          67.9689   96.8524    8.6299 F       1  UNL1       -0.2042
     48 C          67.9367   94.2789    8.9851 C.ar    1  UNL1        0.0293
     49 C          67.3168   93.0604    9.6023 C.ar    1  UNL1       -0.0011
@<TRIPOS>BOND
     1     6     7    1
     2     7     8    1
     3     7     5    1
     4     5     4    1
     5     4     1    1
     6     1     9    1
     7     9    10    1
     8    10    11   ar
     9    11    12   ar
    10    12    13   ar
    11    13    16    1
    12    16    17   ar
    13    17    18   ar
    14    18    19   ar
    15    19    22    1
    16    22    23    1
    17    22    24    1
    18    22    25    1
    19    19    20   ar
    20    20    21   ar
    21    13    14   ar
    22    14    15   ar
    23     1     2   am
    24     2     3    2
    25     2    26    1
    26    26    27    1
    27    27    28   ar
    28    28    29   ar
    29    29    34    1
    30    34    35    1
    31    35    36   ar
    32    36    37   ar
    33    37    38   ar
    34    38    39    1
    35    38    40   ar
    36    29    30   ar
    37    30    31    2
    38    30    32   ar
    39    32    33   ar
    40    33    41    1
    41    41    42    1
    42    42    43    1
    43    43    44   ar
    44    44    45   ar
    45    45    46   ar
    46    46    47    1
    47    46    48   ar
    48    48    49   ar
    49    15    10   ar
    50    33    27   ar
    51    49    43   ar
    52    21    16   ar
    53    40    35   ar
@<TRIPOS>MOLECULE
*****
 49 53 0 0 0
SMALL
GASTEIGER

@<TRIPOS>ATOM
      1 N          61.5369   86.8169   10.9206 N.am    1  UNL1       -0.2724
      2 C          61.8506   87.8833   11.9278 C.2     1  UNL1        0.2491
      3 O          60.8947   89.0198   12.1391 O.2     1  UNL1       -0.2727
      4 C          62.4929   85.6803   10.7094 C.3     1  UNL1        0.1111
      5 C          62.3266   84.4067   11.4841 C.3     1  UNL1        0.0939
      6 C          64.2625   83.2850   10.1635 C.3     1  UNL1        0.0897
      7 N          63.0704   83.1727   11.0671 N.3     1  UNL1       -0.2688
      8 C          62.6223   81.8264   11.5536 C.3     1  UNL1        0.0897
      9 C          60.2675   86.8870   10.1247 C.3     1  UNL1        0.1202
     10 C          60.1600   87.8338    8.9662 C.ar    1  UNL1       -0.0023
     11 C          60.8223   89.1780    9.0322 C.ar    1  UNL1       -0.0026
     12 C          60.7147   90.1247    7.8737 C.ar    1  UNL1       -0.0003
     13 C          59.9448   89.7273    6.6493 C.ar    1  UNL1       -0.0000
     14 C          59.2825   88.3831    6.5833 C.ar    1  UNL1       -0.0003
     15 C          59.3900   87.4363    7.7418 C.ar    1  UNL1       -0.0026
     16 C          59.8372   90.6741    5.4908 C.ar    1  UNL1       -0.0000
     17 C          61.0709   91.0927    4.7473 C.ar    1  UNL1       -0.0001
     18 C          60.9633   92.0395    3.5888 C.ar    1  UNL1        0.0039
     19 C          59.6221   92.5677    3.1738 C.ar    1  UNL1        0.0714
     20 C          58.3884   92.1490    3.9174 C.ar    1  UNL1        0.0039
     21 C          58.4960   91.2022    5.0759 C.ar    1  UNL1       -0.0001
     22 C          59.5145   93.5144    2.0154 C.3     1  UNL1        0.4186
     23 F          59.4069   94.4612    0.8570 F       1  UNL1       -0.1659
     24 F          58.7761   92.4707    1.2310 F       1  UNL1       -0.1659
     25 F          60.2529   94.5581    2.7998 F       1  UNL1       -0.1659
     26 C          63.1201   87.8131   12.7238 C.3     1  UNL1        0.1934
     27 N          63.8200   89.0754   13.1322 N.ar    1  UNL1       -0.2979
     28 C          63.7858   90.2762   12.2338 C.ar    1  UNL1        0.0786
     29 C          64.4857   91.5385   12.6421 C.ar    1  UNL1        0.0574
     30 C          65.2198   91.6000   13.9489 C.ar    1  UNL1        0.2786
     31 O          65.9197   92.8623   14.3572 O.2     1  UNL1       -0.2654
     32 N          65.2539   90.3993   14.8471 N.ar    1  UNL1       -0.1847
     33 C          64.5540   89.1370   14.4388 C.ar    1  UNL1        0.1750
     34 C          64.4516   92.7393   11.7438 C.3     1  UNL1        0.0622
     35 C          65.6979   93.1825   11.0365 C.ar    1  UNL1        0.0220
     36 C          66.1256   94.6022   10.8099 C.ar    1  UNL1        0.1177
     37 N          67.4274   94.5809   10.0649 N.ar    1  UNL1       -0.1679
     38 N          67.8043   93.1479    9.8311 N.ar    1  UNL1       -0.2477
     39 C          69.0340   92.6641    9.1215 C.3     1  UNL1        0.1537
     40 C          66.7354   92.2837   10.4316 C.ar    1  UNL1        0.0927
     41 S          64.5881   87.9362   15.3371 S.3     1  UNL1       -0.0724
     42 C          63.3906   87.0381   15.4345 C.3     1  UNL1        0.0913
     43 C          63.5250   85.5740   15.1378 C.ar    1  UNL1       -0.0108
     44 C          62.4151   84.6310   15.4968 C.ar    1  UNL1       -0.0011
     45 C          62.5495   83.1668   15.2000 C.ar    1  UNL1        0.0293
     46 C          63.7938   82.6456   14.5443 C.ar    1  UNL1        0.1401
     47 F          63.9282   81.1814   14.2476 F       1  UNL1       -0.2042
     48 C          64.9037   83.5886   14.1853 C.ar    1  UNL1        0.0293
     49 C          64.7693   85.0528   14.4821 C.ar    1  UNL1       -0.0011
@<TRIPOS>BOND
     1     6     7    1
     2     7     8    1
     3     7     5    1
     4     5     4    1
     5     4     1    1
     6     1     9    1
     7     9    10    1
     8    10    11   ar
     9    11    12   ar
    10    12    13   ar
    11    13    16    1
    12    16    17   ar
    13    17    18   ar
    14    18    19   ar
    15    19    22    1
    16    22    23    1
    17    22    24    1
    18    22    25    1
    19    19    20   ar
    20    20    21   ar
    21    13    14   ar
    22    14    15   ar
    23     1     2   am
    24     2     3    2
    25     2    26    1
    26    26    27    1
    27    27    28   ar
    28    28    29   ar
    29    29    34    1
    30    34    35    1
    31    35    36   ar
    32    36    37   ar
    33    37    38   ar
    34    38    39    1
    35    38    40   ar
    36    29    30   ar
    37    30    31    2
    38    30    32   ar
    39    32    33   ar
    40    33    41    1
    41    41    42    1
    42    42    43    1
    43    43    44   ar
    44    44    45   ar
    45    45    46   ar
    46    46    47    1
    47    46    48   ar
    48    48    49   ar
    49    15    10   ar
    50    33    27   ar
    51    49    43   ar
    52    21    16   ar
    53    40    35   ar
@<TRIPOS>MOLECULE
*****
 49 53 0 0 0
SMALL
GASTEIGER

@<TRIPOS>ATOM
      1 N          62.5971   90.6998   10.3402 N.am    1  UNL1       -0.2724
      2 C          63.8992   91.4361   10.4510 C.2     1  UNL1        0.2491
      3 O          65.0806   90.9974    9.6375 O.2     1  UNL1       -0.2727
      4 C          61.4157   91.1386   11.1538 C.3     1  UNL1        0.1111
      5 C          60.0392   90.6632   10.7942 C.3     1  UNL1        0.0939
      6 C          59.3849   88.1604   10.5533 C.3     1  UNL1        0.0897
      7 N          59.5026   89.3973   11.3938 N.3     1  UNL1       -0.2688
      8 C          59.0836   89.3682   12.8337 C.3     1  UNL1        0.0897
      9 C          62.4764   89.5247    9.4158 C.3     1  UNL1        0.1202
     10 C          62.5111   88.1300    9.9671 C.ar    1  UNL1       -0.0023
     11 C          62.3029   86.9576    9.0550 C.ar    1  UNL1       -0.0026
     12 C          62.3377   85.5630    9.6064 C.ar    1  UNL1       -0.0003
     13 C          62.5807   85.3410   11.0698 C.ar    1  UNL1       -0.0000
     14 C          62.7889   86.5134   11.9819 C.ar    1  UNL1       -0.0003
     15 C          62.7541   87.9079   11.4306 C.ar    1  UNL1       -0.0026
     16 C          62.6155   83.9463   11.6211 C.ar    1  UNL1       -0.0000
     17 C          62.2789   83.7009   13.0621 C.ar    1  UNL1       -0.0001
     18 C          62.3136   82.3063   13.6134 C.ar    1  UNL1        0.0039
     19 C          62.6850   81.1571   12.7237 C.ar    1  UNL1        0.0714
     20 C          63.0216   81.4026   11.2827 C.ar    1  UNL1        0.0039
     21 C          62.9868   82.7972   10.7314 C.ar    1  UNL1       -0.0001
     22 C          62.7198   79.7626   13.2749 C.3     1  UNL1        0.4186
     23 F          62.7546   78.3680   13.8262 F       1  UNL1       -0.1659
     24 F          62.8882   80.3141   14.6596 F       1  UNL1       -0.1659
     25 F          62.5514   79.2110   11.8903 F       1  UNL1       -0.1659
     26 C          64.0199   92.6113   11.3755 C.3     1  UNL1        0.1934
     27 N          64.6257   92.4358   12.7364 N.ar    1  UNL1       -0.2979
     28 C          63.8914   91.6604   13.7899 C.ar    1  UNL1        0.0786
     29 C          64.4972   91.4849   15.1508 C.ar    1  UNL1        0.0574
     30 C          65.8373   92.0849   15.4583 C.ar    1  UNL1        0.2786
     31 O          66.4431   91.9094   16.8193 O.2     1  UNL1       -0.2654
     32 N          66.5714   92.8602   14.4049 N.ar    1  UNL1       -0.1847
     33 C          65.9656   93.0357   13.0439 C.ar    1  UNL1        0.1750
     34 C          63.7631   90.7096   16.2043 C.3     1  UNL1        0.0622
     35 C          63.6772   89.2148   16.1121 C.ar    1  UNL1        0.0220
     36 C          64.2014   88.3690   14.9898 C.ar    1  UNL1        0.1177
     37 N          63.9002   86.9350   15.3102 N.ar    1  UNL1       -0.1679
     38 N          63.1896   86.8944   16.6307 N.ar    1  UNL1       -0.2477
     39 C          62.7025   85.6614   17.3323 C.3     1  UNL1        0.1537
     40 C          63.0519   88.3034   17.1263 C.ar    1  UNL1        0.0927
     41 S          66.6998   93.8111   11.9905 S.3     1  UNL1       -0.0724
     42 C          66.2791   95.2127   11.6610 C.3     1  UNL1        0.0913
     43 C          66.0931   95.6233   10.2304 C.ar    1  UNL1       -0.0108
     44 C          64.9011   96.4431    9.8343 C.ar    1  UNL1       -0.0011
     45 C          64.7150   96.8537    8.4036 C.ar    1  UNL1        0.0293
     46 C          65.7211   96.4444    7.3690 C.ar    1  UNL1        0.1401
     47 F          65.5351   96.8549    5.9383 F       1  UNL1       -0.2042
     48 C          66.9132   95.6245    7.7651 C.ar    1  UNL1        0.0293
     49 C          67.0991   95.2140    9.1958 C.ar    1  UNL1       -0.0011
@<TRIPOS>BOND
     1     6     7    1
     2     7     8    1
     3     7     5    1
     4     5     4    1
     5     4     1    1
     6     1     9    1
     7     9    10    1
     8    10    11   ar
     9    11    12   ar
    10    12    13   ar
    11    13    16    1
    12    16    17   ar
    13    17    18   ar
    14    18    19   ar
    15    19    22    1
    16    22    23    1
    17    22    24    1
    18    22    25    1
    19    19    20   ar
    20    20    21   ar
    21    13    14   ar
    22    14    15   ar
    23     1     2   am
    24     2     3    2
    25     2    26    1
    26    26    27    1
    27    27    28   ar
    28    28    29   ar
    29    29    34    1
    30    34    35    1
    31    35    36   ar
    32    36    37   ar
    33    37    38   ar
    34    38    39    1
    35    38    40   ar
    36    29    30   ar
    37    30    31    2
    38    30    32   ar
    39    32    33   ar
    40    33    41    1
    41    41    42    1
    42    42    43    1
    43    43    44   ar
    44    44    45   ar
    45    45    46   ar
    46    46    47    1
    47    46    48   ar
    48    48    49   ar
    49    15    10   ar
    50    33    27   ar
    51    49    43   ar
    52    21    16   ar
    53    40    35   ar
