@<TRIPOS>MOLECULE
*****
 25 27 0 0 0
SMALL
GASTEIGER

@<TRIPOS>ATOM
      1 C          63.3393   90.0181   12.5598 C.ar    1  UNL1        0.0576
      2 C          63.0455   89.4574   13.9197 C.ar    1  UNL1        0.0161
      3 C          63.6541   90.0866   15.1378 C.ar    1  UNL1        0.0609
      4 CL         63.3603   89.5259   16.4977 Cl      1  UNL1       -0.0821
      5 C          64.5564   91.2764   14.9960 C.ar    1  UNL1        0.0489
      6 C          64.8502   91.8371   13.6362 C.ar    1  UNL1        0.1464
      7 C          64.2417   91.2080   12.4181 C.ar    1  UNL1        0.0421
      8 O          62.7126   90.1364   10.0412 O.2     1  UNL1       -0.2698
      9 C          62.7308   89.3890   11.3416 C.2     1  UNL1        0.2507
     10 N          62.1405   88.0125   11.4239 N.am    1  UNL1       -0.2658
     11 H          62.1524   87.5220   12.2774 H       1  UNL1        0.1566
     12 C          61.5319   87.3834   10.2057 C.ar    1  UNL1        0.1353
     13 C          60.1110   87.6885    9.8344 C.ar    1  UNL1        0.0346
     14 C          59.5026   87.0594    8.6162 C.ar    1  UNL1        0.0053
     15 C          60.3150   86.1252    7.7694 C.ar    1  UNL1        0.0309
     16 C          61.7359   85.8200    8.1407 C.ar    1  UNL1        0.1397
     17 CL         62.5483   84.8858    7.2938 Cl      1  UNL1       -0.0613
     18 N          62.3443   86.4492    9.3588 N.ar    1  UNL1       -0.2191
     19 O          65.7525   93.0270   13.4944 O.3     1  UNL1       -0.4503
     20 C          66.3908   93.3308   12.1715 C.ar    1  UNL1        0.1835
     21 C          67.3195   92.3359   11.5407 C.ar    1  UNL1        0.1396
     22 N          67.9578   92.6398   10.2177 N.ar    1  UNL1       -0.2192
     23 C          67.6675   93.9384    9.5255 C.ar    1  UNL1        0.1991
     24 N          66.7389   94.9333   10.1563 N.ar    1  UNL1       -0.2192
     25 C          66.1005   94.6295   11.4793 C.ar    1  UNL1        0.1396
@<TRIPOS>BOND
     1     8     9    2
     2     9    10   am
     3    10    12    1
     4    12    13   ar
     5    13    14   ar
     6    14    15   ar
     7    15    16   ar
     8    16    17    1
     9    16    18   ar
    10     9     1    1
    11     1     2   ar
    12     2     3   ar
    13     3     4    1
    14     3     5   ar
    15     5     6   ar
    16     6    19    1
    17    19    20    1
    18    20    21   ar
    19    21    22   ar
    20    22    23   ar
    21    23    24   ar
    22    24    25   ar
    23     6     7   ar
    24    18    12   ar
    25     7     1   ar
    26    25    20   ar
    27    10    11    1
@<TRIPOS>MOLECULE
*****
 25 27 0 0 0
SMALL
GASTEIGER

@<TRIPOS>ATOM
      1 C          63.6184   88.3626   13.1135 C.ar    1  UNL1        0.0576
      2 C          63.1047   88.8937   11.8082 C.ar    1  UNL1        0.0161
      3 C          63.1177   90.3698   11.5418 C.ar    1  UNL1        0.0609
      4 CL         62.6040   90.9010   10.2364 Cl      1  UNL1       -0.0821
      5 C          63.6445   91.3148   12.5808 C.ar    1  UNL1        0.0489
      6 C          64.1583   90.7837   13.8861 C.ar    1  UNL1        0.1464
      7 C          64.1452   89.3076   14.1525 C.ar    1  UNL1        0.0421
      8 O          64.4957   86.3077   14.4394 O.2     1  UNL1       -0.2698
      9 C          63.6054   86.8865   13.3799 C.2     1  UNL1        0.2507
     10 N          62.7022   85.9892   12.5869 N.am    1  UNL1       -0.2658
     11 H          62.1179   86.3691   11.8915 H       1  UNL1        0.1566
     12 C          62.6892   84.5130   12.8533 C.ar    1  UNL1        0.1353
     13 C          62.4461   84.0039   14.2431 C.ar    1  UNL1        0.0346
     14 C          62.4331   82.5278   14.5094 C.ar    1  UNL1        0.0053
     15 C          62.6632   81.5609   13.3860 C.ar    1  UNL1        0.0309
     16 C          62.9062   82.0701   11.9961 C.ar    1  UNL1        0.1397
     17 CL         63.1362   81.1031   10.8727 Cl      1  UNL1       -0.0613
     18 N          62.9192   83.5461   11.7298 N.ar    1  UNL1       -0.2191
     19 O          64.6851   91.7287   14.9251 O.3     1  UNL1       -0.4503
     20 C          66.1402   92.0922   14.9394 C.ar    1  UNL1        0.1835
     21 C          66.7450   92.7180   16.1612 C.ar    1  UNL1        0.1396
     22 N          68.2002   93.0816   16.1755 N.ar    1  UNL1       -0.2192
     23 C          69.0506   92.8194   14.9681 C.ar    1  UNL1        0.1991
     24 N          68.4460   92.1937   13.7463 N.ar    1  UNL1       -0.2192
     25 C          66.9907   91.8300   13.7320 C.ar    1  UNL1        0.1396
@<TRIPOS>BOND
     1     8     9    2
     2     9    10   am
     3    10    12    1
     4    12    13   ar
     5    13    14   ar
     6    14    15   ar
     7    15    16   ar
     8    16    17    1
     9    16    18   ar
    10     9     1    1
    11     1     2   ar
    12     2     3   ar
    13     3     4    1
    14     3     5   ar
    15     5     6   ar
    16     6    19    1
    17    19    20    1
    18    20    21   ar
    19    21    22   ar
    20    22    23   ar
    21    23    24   ar
    22    24    25   ar
    23     6     7   ar
    24    18    12   ar
    25     7     1   ar
    26    25    20   ar
    27    10    11    1
@<TRIPOS>MOLECULE
*****
 25 27 0 0 0
SMALL
GASTEIGER

@<TRIPOS>ATOM
      1 C          63.2572   90.2552   12.2860 C.ar    1  UNL1        0.0576
      2 C          63.0128   89.5664   13.5958 C.ar    1  UNL1        0.0161
      3 C          63.7067   90.0460   14.8362 C.ar    1  UNL1        0.0609
      4 CL         63.4623   89.3572   16.1462 Cl      1  UNL1       -0.0821
      5 C          64.6448   91.2143   14.7667 C.ar    1  UNL1        0.0489
      6 C          64.8892   91.9031   13.4569 C.ar    1  UNL1        0.1464
      7 C          64.1954   91.4236   12.2165 C.ar    1  UNL1        0.0421
      8 O          62.8226   90.4522    9.7321 O.2     1  UNL1       -0.2698
      9 C          62.5633   89.7757   11.0455 C.2     1  UNL1        0.2507
     10 N          61.6103   88.6197   11.1185 N.am    1  UNL1       -0.2658
     11 H          61.4402   88.1757   11.9805 H       1  UNL1        0.1566
     12 C          60.9165   88.1402    9.8780 C.ar    1  UNL1        0.1353
     13 C          60.8009   86.6700    9.6040 C.ar    1  UNL1        0.0346
     14 C          60.1071   86.1906    8.3636 C.ar    1  UNL1        0.0053
     15 C          59.5288   87.1813    7.3971 C.ar    1  UNL1        0.0309
     16 C          59.6444   88.6515    7.6711 C.ar    1  UNL1        0.1397
     17 CL         59.0661   89.6423    6.7047 Cl      1  UNL1       -0.0613
     18 N          60.3382   89.1310    8.9116 N.ar    1  UNL1       -0.2191
     19 O          65.8274   93.0714   13.3874 O.3     1  UNL1       -0.4503
     20 C          66.4378   93.4661   12.0753 C.ar    1  UNL1        0.1835
     21 C          66.1877   94.8341   11.5131 C.ar    1  UNL1        0.1396
     22 N          66.7982   95.2288   10.2010 N.ar    1  UNL1       -0.2192
     23 C          67.6587   94.2556    9.4512 C.ar    1  UNL1        0.1991
     24 N          67.9088   92.8876   10.0134 N.ar    1  UNL1       -0.2192
     25 C          67.2983   92.4929   11.3255 C.ar    1  UNL1        0.1396
@<TRIPOS>BOND
     1     8     9    2
     2     9    10   am
     3    10    12    1
     4    12    13   ar
     5    13    14   ar
     6    14    15   ar
     7    15    16   ar
     8    16    17    1
     9    16    18   ar
    10     9     1    1
    11     1     2   ar
    12     2     3   ar
    13     3     4    1
    14     3     5   ar
    15     5     6   ar
    16     6    19    1
    17    19    20    1
    18    20    21   ar
    19    21    22   ar
    20    22    23   ar
    21    23    24   ar
    22    24    25   ar
    23     6     7   ar
    24    18    12   ar
    25     7     1   ar
    26    25    20   ar
    27    10    11    1
@<TRIPOS>MOLECULE
*****
 25 27 0 0 0
SMALL
GASTEIGER

@<TRIPOS>ATOM
      1 C          63.1545   88.9764   12.1362 C.ar    1  UNL1        0.0576
      2 C          63.4751   87.9496   13.1815 C.ar    1  UNL1        0.0161
      3 C          64.2551   88.3400   14.4018 C.ar    1  UNL1        0.0609
      4 CL         64.5758   87.3132   15.4473 Cl      1  UNL1       -0.0821
      5 C          64.7146   89.7572   14.5767 C.ar    1  UNL1        0.0489
      6 C          64.3939   90.7840   13.5313 C.ar    1  UNL1        0.1464
      7 C          63.6139   90.3936   12.3110 C.ar    1  UNL1        0.0421
      8 O          61.9704   89.6307    9.9181 O.2     1  UNL1       -0.2698
      9 C          62.3744   88.5861   10.9158 C.2     1  UNL1        0.2507
     10 N          61.9984   87.1512   10.6932 N.am    1  UNL1       -0.2658
     11 H          62.2636   86.4655   11.3481 H       1  UNL1        0.1566
     12 C          61.2183   86.7608    9.4729 C.ar    1  UNL1        0.1353
     13 C          59.8237   87.2772    9.2773 C.ar    1  UNL1        0.0346
     14 C          59.0437   86.8868    8.0570 C.ar    1  UNL1        0.0053
     15 C          59.6583   85.9801    7.0323 C.ar    1  UNL1        0.0309
     16 C          61.0530   85.4638    7.2279 C.ar    1  UNL1        0.1397
     17 CL         61.6676   84.5570    6.2031 Cl      1  UNL1       -0.0613
     18 N          61.8330   85.8541    8.4482 N.ar    1  UNL1       -0.2191
     19 O          64.8534   92.2011   13.7062 O.3     1  UNL1       -0.4503
     20 C          66.2121   92.4843   14.2750 C.ar    1  UNL1        0.1835
     21 C          67.4411   92.1620   13.4775 C.ar    1  UNL1        0.1396
     22 N          68.7999   92.4452   14.0463 N.ar    1  UNL1       -0.2192
     23 C          68.9297   93.0506   15.4125 C.ar    1  UNL1        0.1991
     24 N          67.7009   93.3728   16.2100 N.ar    1  UNL1       -0.2192
     25 C          66.3420   93.0897   15.6412 C.ar    1  UNL1        0.1396
@<TRIPOS>BOND
     1     8     9    2
     2     9    10   am
     3    10    12    1
     4    12    13   ar
     5    13    14   ar
     6    14    15   ar
     7    15    16   ar
     8    16    17    1
     9    16    18   ar
    10     9     1    1
    11     1     2   ar
    12     2     3   ar
    13     3     4    1
    14     3     5   ar
    15     5     6   ar
    16     6    19    1
    17    19    20    1
    18    20    21   ar
    19    21    22   ar
    20    22    23   ar
    21    23    24   ar
    22    24    25   ar
    23     6     7   ar
    24    18    12   ar
    25     7     1   ar
    26    25    20   ar
    27    10    11    1
@<TRIPOS>MOLECULE
*****
 25 27 0 0 0
SMALL
GASTEIGER

@<TRIPOS>ATOM
      1 C          63.7467   86.6354   15.0263 C.ar    1  UNL1        0.0576
      2 C          63.3266   86.4359   16.4524 C.ar    1  UNL1        0.0161
      3 C          63.0926   87.6234   17.3384 C.ar    1  UNL1        0.0609
      4 CL         62.6725   87.4239   18.7645 Cl      1  UNL1       -0.0821
      5 C          63.2786   89.0104   16.7983 C.ar    1  UNL1        0.0489
      6 C          63.6987   89.2098   15.3723 C.ar    1  UNL1        0.1464
      7 C          63.9328   88.0223   14.4863 C.ar    1  UNL1        0.0421
      8 O          65.2755   84.6949   14.2218 O.2     1  UNL1       -0.2698
      9 C          63.9808   85.4478   14.1403 C.2     1  UNL1        0.2507
     10 N          62.9201   85.0133   13.1727 N.am    1  UNL1       -0.2658
     11 H          62.0704   85.5075   13.1192 H       1  UNL1        0.1566
     12 C          63.1542   83.8258   12.2866 C.ar    1  UNL1        0.1353
     13 C          63.7855   84.0089   10.9384 C.ar    1  UNL1        0.0346
     14 C          64.0196   82.8214   10.0524 C.ar    1  UNL1        0.0053
     15 C          63.6223   81.4508   10.5147 C.ar    1  UNL1        0.0309
     16 C          62.9910   81.2677   11.8629 C.ar    1  UNL1        0.1397
     17 CL         62.5937   79.8971   12.3252 Cl      1  UNL1       -0.0613
     18 N          62.7569   82.4552   12.7489 N.ar    1  UNL1       -0.2191
     19 O          63.8847   90.5968   14.8322 O.3     1  UNL1       -0.4503
     20 C          65.1628   91.3377   15.0921 C.ar    1  UNL1        0.1835
     21 C          66.3172   91.1971   14.1446 C.ar    1  UNL1        0.1396
     22 N          67.5953   91.9380   14.4045 N.ar    1  UNL1       -0.2192
     23 C          67.7191   92.8195   15.6118 C.ar    1  UNL1        0.1991
     24 N          66.5647   92.9601   16.5592 N.ar    1  UNL1       -0.2192
     25 C          65.2866   92.2192   16.2994 C.ar    1  UNL1        0.1396
@<TRIPOS>BOND
     1     8     9    2
     2     9    10   am
     3    10    12    1
     4    12    13   ar
     5    13    14   ar
     6    14    15   ar
     7    15    16   ar
     8    16    17    1
     9    16    18   ar
    10     9     1    1
    11     1     2   ar
    12     2     3   ar
    13     3     4    1
    14     3     5   ar
    15     5     6   ar
    16     6    19    1
    17    19    20    1
    18    20    21   ar
    19    21    22   ar
    20    22    23   ar
    21    23    24   ar
    22    24    25   ar
    23     6     7   ar
    24    18    12   ar
    25     7     1   ar
    26    25    20   ar
    27    10    11    1
@<TRIPOS>MOLECULE
*****
 25 27 0 0 0
SMALL
GASTEIGER

@<TRIPOS>ATOM
      1 C          64.0460   88.4528   15.2732 C.ar    1  UNL1        0.0576
      2 C          63.3135   88.2967   16.5728 C.ar    1  UNL1        0.0161
      3 C          63.0972   86.9303   17.1523 C.ar    1  UNL1        0.0609
      4 CL         62.3646   86.7741   18.4520 Cl      1  UNL1       -0.0821
      5 C          63.6135   85.7199   16.4323 C.ar    1  UNL1        0.0489
      6 C          64.3460   85.8760   15.1327 C.ar    1  UNL1        0.1464
      7 C          64.5622   87.2424   14.5531 C.ar    1  UNL1        0.0421
      8 O          63.0881   90.7101   14.4144 O.2     1  UNL1       -0.2698
      9 C          64.2623   89.8194   14.6935 C.2     1  UNL1        0.2507
     10 N          65.6527   90.2951   14.3931 N.am    1  UNL1       -0.2658
     11 H          66.4233   89.7105   14.5763 H       1  UNL1        0.1566
     12 C          65.8690   91.6616   13.8134 C.ar    1  UNL1        0.1353
     13 C          66.4495   92.7532   14.6627 C.ar    1  UNL1        0.0346
     14 C          66.6658   94.1197   14.0831 C.ar    1  UNL1        0.0053
     15 C          66.3015   94.3945   12.6541 C.ar    1  UNL1        0.0309
     16 C          65.7210   93.3029   11.8049 C.ar    1  UNL1        0.1397
     17 CL         65.3567   93.5777   10.3760 Cl      1  UNL1       -0.0613
     18 N          65.5047   91.9364   12.3845 N.ar    1  UNL1       -0.2191
     19 O          64.8623   84.6656   14.4127 O.3     1  UNL1       -0.4503
     20 C          63.9073   83.6094   13.9409 C.ar    1  UNL1        0.1835
     21 C          63.2660   82.6822   14.9304 C.ar    1  UNL1        0.1396
     22 N          62.3110   81.6260   14.4587 N.ar    1  UNL1       -0.2192
     23 C          61.9974   81.4970   12.9975 C.ar    1  UNL1        0.1991
     24 N          62.6386   82.4242   12.0081 N.ar    1  UNL1       -0.2192
     25 C          63.5936   83.4805   12.4798 C.ar    1  UNL1        0.1396
@<TRIPOS>BOND
     1     8     9    2
     2     9    10   am
     3    10    12    1
     4    12    13   ar
     5    13    14   ar
     6    14    15   ar
     7    15    16   ar
     8    16    17    1
     9    16    18   ar
    10     9     1    1
    11     1     2   ar
    12     2     3   ar
    13     3     4    1
    14     3     5   ar
    15     5     6   ar
    16     6    19    1
    17    19    20    1
    18    20    21   ar
    19    21    22   ar
    20    22    23   ar
    21    23    24   ar
    22    24    25   ar
    23     6     7   ar
    24    18    12   ar
    25     7     1   ar
    26    25    20   ar
    27    10    11    1
@<TRIPOS>MOLECULE
*****
 25 27 0 0 0
SMALL
GASTEIGER

@<TRIPOS>ATOM
      1 C          62.8205   87.9052   11.9543 C.ar    1  UNL1        0.0576
      2 C          61.9752   88.1036   10.7311 C.ar    1  UNL1        0.0161
      3 C          61.6795   89.4900   10.2407 C.ar    1  UNL1        0.0609
      4 CL         60.8342   89.6884    9.0175 Cl      1  UNL1       -0.0821
      5 C          62.2291   90.6779   10.9733 C.ar    1  UNL1        0.0489
      6 C          63.0744   90.4795   12.1965 C.ar    1  UNL1        0.1464
      7 C          63.3701   89.0931   12.6869 C.ar    1  UNL1        0.0421
      8 O          63.7685   86.3192   13.7807 O.2     1  UNL1       -0.2698
      9 C          63.1162   86.5188   12.4448 C.2     1  UNL1        0.2507
     10 N          62.7597   85.3322   11.5994 N.am    1  UNL1       -0.2658
     11 H          62.3316   85.4632   10.7226 H       1  UNL1        0.1566
     12 C          63.0554   83.9458   12.0899 C.ar    1  UNL1        0.1353
     13 C          64.3355   83.2689   11.6986 C.ar    1  UNL1        0.0346
     14 C          64.6312   81.8826   12.1891 C.ar    1  UNL1        0.0053
     15 C          63.6468   81.1732   13.0710 C.ar    1  UNL1        0.0309
     16 C          62.3667   81.8500   13.4623 C.ar    1  UNL1        0.1397
     17 CL         61.3823   81.1406   14.3442 Cl      1  UNL1       -0.0613
     18 N          62.0710   83.2364   12.9718 N.ar    1  UNL1       -0.2191
     19 O          63.6240   91.6674   12.9291 O.3     1  UNL1       -0.4503
     20 C          65.0969   91.7700   13.1934 C.ar    1  UNL1        0.1835
     21 C          66.0045   92.3686   12.1599 C.ar    1  UNL1        0.1396
     22 N          67.4774   92.4711   12.4242 N.ar    1  UNL1       -0.2192
     23 C          68.0429   91.9751   13.7220 C.ar    1  UNL1        0.1991
     24 N          67.1354   91.3765   14.7555 N.ar    1  UNL1       -0.2192
     25 C          65.6624   91.2739   14.4912 C.ar    1  UNL1        0.1396
@<TRIPOS>BOND
     1     8     9    2
     2     9    10   am
     3    10    12    1
     4    12    13   ar
     5    13    14   ar
     6    14    15   ar
     7    15    16   ar
     8    16    17    1
     9    16    18   ar
    10     9     1    1
    11     1     2   ar
    12     2     3   ar
    13     3     4    1
    14     3     5   ar
    15     5     6   ar
    16     6    19    1
    17    19    20    1
    18    20    21   ar
    19    21    22   ar
    20    22    23   ar
    21    23    24   ar
    22    24    25   ar
    23     6     7   ar
    24    18    12   ar
    25     7     1   ar
    26    25    20   ar
    27    10    11    1
@<TRIPOS>MOLECULE
*****
 25 27 0 0 0
SMALL
GASTEIGER

@<TRIPOS>ATOM
      1 C          63.7776   86.4833   15.0917 C.ar    1  UNL1        0.0576
      2 C          63.2820   86.2767   16.4923 C.ar    1  UNL1        0.0161
      3 C          63.0610   87.4569   17.3913 C.ar    1  UNL1        0.0609
      4 CL         62.5654   87.2503   18.7920 Cl      1  UNL1       -0.0821
      5 C          63.3355   88.8436   16.8898 C.ar    1  UNL1        0.0489
      6 C          63.8311   89.0502   15.4892 C.ar    1  UNL1        0.1464
      7 C          64.0521   87.8701   14.5902 C.ar    1  UNL1        0.0421
      8 O          65.2981   84.5556   14.2421 O.2     1  UNL1       -0.2698
      9 C          63.9986   85.3032   14.1926 C.2     1  UNL1        0.2507
     10 N          62.9202   84.8706   13.2440 N.am    1  UNL1       -0.2658
     11 H          62.0673   85.3612   13.2115 H       1  UNL1        0.1566
     12 C          63.1413   83.6904   12.3449 C.ar    1  UNL1        0.1353
     13 C          63.7628   83.8831   10.9934 C.ar    1  UNL1        0.0346
     14 C          63.9839   82.7030   10.0944 C.ar    1  UNL1        0.0053
     15 C          63.5833   81.3301   10.5468 C.ar    1  UNL1        0.0309
     16 C          62.9617   81.1373   11.8982 C.ar    1  UNL1        0.1397
     17 CL         62.5612   79.7644   12.3506 Cl      1  UNL1       -0.0613
     18 N          62.7407   82.3175   12.7972 N.ar    1  UNL1       -0.2191
     19 O          64.1056   90.4370   14.9877 O.3     1  UNL1       -0.4503
     20 C          63.9215   90.7591   13.5343 C.ar    1  UNL1        0.1835
     21 C          64.8931   91.6652   12.8379 C.ar    1  UNL1        0.1396
     22 N          64.7090   91.9873   11.3846 N.ar    1  UNL1       -0.2192
     23 C          63.5532   91.4033   10.6275 C.ar    1  UNL1        0.1991
     24 N          62.5815   90.4973   11.3239 N.ar    1  UNL1       -0.2192
     25 C          62.7657   90.1751   12.7773 C.ar    1  UNL1        0.1396
@<TRIPOS>BOND
     1     8     9    2
     2     9    10   am
     3    10    12    1
     4    12    13   ar
     5    13    14   ar
     6    14    15   ar
     7    15    16   ar
     8    16    17    1
     9    16    18   ar
    10     9     1    1
    11     1     2   ar
    12     2     3   ar
    13     3     4    1
    14     3     5   ar
    15     5     6   ar
    16     6    19    1
    17    19    20    1
    18    20    21   ar
    19    21    22   ar
    20    22    23   ar
    21    23    24   ar
    22    24    25   ar
    23     6     7   ar
    24    18    12   ar
    25     7     1   ar
    26    25    20   ar
    27    10    11    1
@<TRIPOS>MOLECULE
*****
 25 27 0 0 0
SMALL
GASTEIGER

@<TRIPOS>ATOM
      1 C          63.2694   90.3337   11.4816 C.ar    1  UNL1        0.0576
      2 C          64.1254   91.4877   11.0511 C.ar    1  UNL1        0.0161
      3 C          64.9692   92.2121   12.0576 C.ar    1  UNL1        0.0609
      4 CL         65.8252   93.3663   11.6270 Cl      1  UNL1       -0.0821
      5 C          64.9571   91.7824   13.4947 C.ar    1  UNL1        0.0489
      6 C          64.1012   90.6284   13.9252 C.ar    1  UNL1        0.1464
      7 C          63.2573   89.9040   12.9187 C.ar    1  UNL1        0.0421
      8 O          61.6566   90.3827    9.4453 O.2     1  UNL1       -0.2698
      9 C          62.4255   89.6092   10.4751 C.2     1  UNL1        0.2507
     10 N          62.3505   88.1113   10.4983 N.am    1  UNL1       -0.2658
     11 H          62.8552   87.6036   11.1742 H       1  UNL1        0.1566
     12 C          61.5066   87.3868    9.4918 C.ar    1  UNL1        0.1353
     13 C          60.0329   87.6559    9.4160 C.ar    1  UNL1        0.0346
     14 C          59.1891   86.9314    8.4095 C.ar    1  UNL1        0.0053
     15 C          59.8190   85.9380    7.4788 C.ar    1  UNL1        0.0309
     16 C          61.2927   85.6689    7.5546 C.ar    1  UNL1        0.1397
     17 CL         61.9225   84.6755    6.6238 Cl      1  UNL1       -0.0613
     18 N          62.1365   86.3934    8.5611 N.ar    1  UNL1       -0.2191
     19 O          64.0890   90.1987   15.3623 O.3     1  UNL1       -0.4503
     20 C          63.8185   88.7660   15.7145 C.ar    1  UNL1        0.1835
     21 C          64.3657   87.6659   14.8540 C.ar    1  UNL1        0.1396
     22 N          64.0951   86.2332   15.2062 N.ar    1  UNL1       -0.2192
     23 C          63.2774   85.9005   16.4189 C.ar    1  UNL1        0.1991
     24 N          62.7302   87.0005   17.2793 N.ar    1  UNL1       -0.2192
     25 C          63.0007   88.4333   16.9272 C.ar    1  UNL1        0.1396
@<TRIPOS>BOND
     1     8     9    2
     2     9    10   am
     3    10    12    1
     4    12    13   ar
     5    13    14   ar
     6    14    15   ar
     7    15    16   ar
     8    16    17    1
     9    16    18   ar
    10     9     1    1
    11     1     2   ar
    12     2     3   ar
    13     3     4    1
    14     3     5   ar
    15     5     6   ar
    16     6    19    1
    17    19    20    1
    18    20    21   ar
    19    21    22   ar
    20    22    23   ar
    21    23    24   ar
    22    24    25   ar
    23     6     7   ar
    24    18    12   ar
    25     7     1   ar
    26    25    20   ar
    27    10    11    1
