@<TRIPOS>MOLECULE
*****
 25 27 0 0 0
SMALL
GASTEIGER

@<TRIPOS>ATOM
      1 C          62.2988   89.1221   10.8121 C.2     1  UNL1        0.0412
      2 C          62.3738   87.6876   11.2440 C.2     1  UNL1       -0.0326
      3 C          63.3546   87.2727   12.3003 C.3     1  UNL1        0.0442
      4 C          63.4297   85.8382   12.7322 C.3     1  UNL1        0.0967
      5 N          62.5239   84.8185   12.1077 N.pl3   1  UNL1       -0.2877
      6 C          61.5431   85.2334   11.0513 C.3     1  UNL1        0.0967
      7 C          61.4681   86.6680   10.6195 C.3     1  UNL1        0.0442
      8 C          62.5989   83.3840   12.5395 C.ar    1  UNL1        0.2023
      9 N          62.6260   82.2918   11.5118 N.ar    1  UNL1       -0.2235
     10 C          62.7011   80.8573   11.9437 C.ar    1  UNL1        0.1007
     11 C          62.7490   80.5150   13.4034 C.ar    1  UNL1        0.0271
     12 C          62.7219   81.6072   14.4311 C.ar    1  UNL1        0.0799
     13 C          62.6469   83.0418   13.9992 C.ar    1  UNL1        0.3211
     14 N          62.6198   84.1340   15.0269 N.pl3   1  UNL1        0.0839
     15 O          61.3361   84.8493   15.3275 O.2     1  UNL1        0.0416
     16 O          63.8764   84.5110   15.7541 O.co2   1  UNL1       -0.5759
     17 C          64.1103   91.1613   12.0610 C.1     1  UNL1       -0.0405
     18 C          63.2046   90.1417   11.4366 C.1     1  UNL1       -0.0583
     19 C          66.8057   92.8774   16.1586 C.3     1  UNL1        0.0521
     20 C          66.3638   93.0390   14.7343 C.ar    1  UNL1        0.0600
     21 C          66.8276   94.2202   13.9345 C.ar    1  UNL1        0.0148
     22 C          66.3856   94.3818   12.5102 C.ar    1  UNL1        0.0034
     23 C          65.4799   93.3622   11.8857 C.ar    1  UNL1        0.0276
     24 C          65.0161   92.1810   12.6855 C.ar    1  UNL1        0.1224
     25 N          65.4581   92.0194   14.1098 N.ar    1  UNL1       -0.2414
@<TRIPOS>UNITY_ATOM_ATTR
14 1
charge 1
16 1
charge -1
@<TRIPOS>BOND
     1    19    20    1
     2    20    21   ar
     3    21    22   ar
     4    22    23   ar
     5    23    24   ar
     6    24    17    1
     7    17    18    3
     8    18     1    1
     9     1     2    2
    10     2     3    1
    11     3     4    1
    12     4     5    1
    13     5     8    1
    14     8     9   ar
    15     9    10   ar
    16    10    11   ar
    17    11    12   ar
    18    12    13   ar
    19    13    14    1
    20    14    15    2
    21    14    16    1
    22     5     6    1
    23     6     7    1
    24    24    25   ar
    25    25    20   ar
    26     7     2    1
    27    13     8   ar
@<TRIPOS>MOLECULE
*****
 25 27 0 0 0
SMALL
GASTEIGER

@<TRIPOS>ATOM
      1 C          62.9511   87.1621   16.6878 C.2     1  UNL1        0.0412
      2 C          63.4894   88.3171   15.8966 C.2     1  UNL1       -0.0326
      3 C          63.9420   88.1107   14.4815 C.3     1  UNL1        0.0442
      4 C          64.4802   89.2658   13.6902 C.3     1  UNL1        0.0967
      5 N          64.5658   90.6273   14.3140 N.pl3   1  UNL1       -0.2877
      6 C          64.1131   90.8336   15.7291 C.3     1  UNL1        0.0967
      7 C          63.5749   89.6785   16.5204 C.3     1  UNL1        0.0442
      8 C          65.1040   91.7823   13.5227 C.ar    1  UNL1        0.2023
      9 N          64.5744   92.0608   12.1472 N.ar    1  UNL1       -0.2235
     10 C          65.1126   93.2158   11.3559 C.ar    1  UNL1        0.1007
     11 C          66.1805   94.0925   11.9401 C.ar    1  UNL1        0.0271
     12 C          66.7101   93.8140   13.3156 C.ar    1  UNL1        0.0799
     13 C          66.1718   92.6589   14.1069 C.ar    1  UNL1        0.3211
     14 N          66.7014   92.3804   15.4824 N.pl3   1  UNL1        0.0839
     15 O          65.9988   92.9393   16.6840 O.2     1  UNL1        0.0416
     16 O          67.9338   91.5430   15.6562 O.co2   1  UNL1       -0.5759
     17 C          62.7800   84.4391   15.4403 C.1     1  UNL1       -0.0405
     18 C          62.8656   85.8006   16.0640 C.1     1  UNL1       -0.0583
     19 C          59.9911   80.2516   14.1416 C.3     1  UNL1        0.0521
     20 C          61.2999   80.9839   14.1671 C.ar    1  UNL1        0.0600
     21 C          62.5232   80.3548   13.5689 C.ar    1  UNL1        0.0148
     22 C          63.8320   81.0871   13.5945 C.ar    1  UNL1        0.0034
     23 C          63.9176   82.4485   14.2183 C.ar    1  UNL1        0.0276
     24 C          62.6944   83.0776   14.8165 C.ar    1  UNL1        0.1224
     25 N          61.3855   82.3453   14.7909 N.ar    1  UNL1       -0.2414
@<TRIPOS>UNITY_ATOM_ATTR
14 1
charge 1
16 1
charge -1
@<TRIPOS>BOND
     1    19    20    1
     2    20    21   ar
     3    21    22   ar
     4    22    23   ar
     5    23    24   ar
     6    24    17    1
     7    17    18    3
     8    18     1    1
     9     1     2    2
    10     2     3    1
    11     3     4    1
    12     4     5    1
    13     5     8    1
    14     8     9   ar
    15     9    10   ar
    16    10    11   ar
    17    11    12   ar
    18    12    13   ar
    19    13    14    1
    20    14    15    2
    21    14    16    1
    22     5     6    1
    23     6     7    1
    24    24    25   ar
    25    25    20   ar
    26     7     2    1
    27    13     8   ar
@<TRIPOS>MOLECULE
*****
 25 27 0 0 0
SMALL
GASTEIGER

@<TRIPOS>ATOM
      1 C          63.4709   88.0979   16.3809 C.2     1  UNL1        0.0412
      2 C          63.3566   86.7662   15.7003 C.2     1  UNL1       -0.0326
      3 C          63.8412   86.6004   14.2904 C.3     1  UNL1        0.0442
      4 C          63.7270   85.2686   13.6098 C.3     1  UNL1        0.0967
      5 N          63.1282   84.1025   14.3390 N.pl3   1  UNL1       -0.2877
      6 C          62.6436   84.2683   15.7489 C.3     1  UNL1        0.0967
      7 C          62.7579   85.6002   16.4295 C.3     1  UNL1        0.0442
      8 C          63.0139   82.7708   13.6584 C.ar    1  UNL1        0.2023
      9 N          63.0182   81.5102   14.4714 N.ar    1  UNL1       -0.2235
     10 C          62.9040   80.1784   13.7908 C.ar    1  UNL1        0.1007
     11 C          62.7854   80.1072   12.2971 C.ar    1  UNL1        0.0271
     12 C          62.7812   81.3678   11.4841 C.ar    1  UNL1        0.0799
     13 C          62.8954   82.6996   12.1648 C.ar    1  UNL1        0.3211
     14 N          62.8911   83.9602   11.3519 N.pl3   1  UNL1        0.0839
     15 O          61.7974   84.9695   11.5388 O.2     1  UNL1        0.0416
     16 O          63.9807   84.2114   10.3519 O.co2   1  UNL1       -0.5759
     17 C          64.6684   90.4301   14.9225 C.1     1  UNL1       -0.0405
     18 C          64.0697   89.2640   15.6517 C.1     1  UNL1       -0.0583
     19 C          65.3970   93.0909   10.5191 C.3     1  UNL1        0.0521
     20 C          65.6315   92.9265   11.9915 C.ar    1  UNL1        0.0600
     21 C          66.4647   93.9282   12.7347 C.ar    1  UNL1        0.0148
     22 C          66.6992   93.7639   14.2071 C.ar    1  UNL1        0.0034
     23 C          66.1004   92.5979   14.9364 C.ar    1  UNL1        0.0276
     24 C          65.2672   91.5962   14.1932 C.ar    1  UNL1        0.1224
     25 N          65.0327   91.7605   12.7208 N.ar    1  UNL1       -0.2414
@<TRIPOS>UNITY_ATOM_ATTR
14 1
charge 1
16 1
charge -1
@<TRIPOS>BOND
     1    19    20    1
     2    20    21   ar
     3    21    22   ar
     4    22    23   ar
     5    23    24   ar
     6    24    17    1
     7    17    18    3
     8    18     1    1
     9     1     2    2
    10     2     3    1
    11     3     4    1
    12     4     5    1
    13     5     8    1
    14     8     9   ar
    15     9    10   ar
    16    10    11   ar
    17    11    12   ar
    18    12    13   ar
    19    13    14    1
    20    14    15    2
    21    14    16    1
    22     5     6    1
    23     6     7    1
    24    24    25   ar
    25    25    20   ar
    26     7     2    1
    27    13     8   ar
@<TRIPOS>MOLECULE
*****
 25 27 0 0 0
SMALL
GASTEIGER

@<TRIPOS>ATOM
      1 C          62.3800   88.9013   10.8775 C.2     1  UNL1        0.0412
      2 C          62.4106   87.4868   11.3755 C.2     1  UNL1       -0.0326
      3 C          63.3201   87.1096   12.5071 C.3     1  UNL1        0.0442
      4 C          63.3508   85.6951   13.0052 C.3     1  UNL1        0.0967
      5 N          62.4718   84.6577   12.3717 N.pl3   1  UNL1       -0.2877
      6 C          61.5623   85.0348   11.2401 C.3     1  UNL1        0.0967
      7 C          61.5317   86.4495   10.7420 C.3     1  UNL1        0.0442
      8 C          62.5025   83.2431   12.8698 C.ar    1  UNL1        0.2023
      9 N          61.8016   82.8820   14.1458 N.ar    1  UNL1       -0.2235
     10 C          61.8322   81.4674   14.6439 C.ar    1  UNL1        0.1007
     11 C          62.5638   80.4140   13.8659 C.ar    1  UNL1        0.0271
     12 C          63.2647   80.7752   12.5899 C.ar    1  UNL1        0.0799
     13 C          63.2340   82.1898   12.0918 C.ar    1  UNL1        0.3211
     14 N          63.9349   82.5510   10.8158 N.pl3   1  UNL1        0.0839
     15 O          65.1465   83.4346   10.8498 O.2     1  UNL1        0.0416
     16 O          63.4241   82.0285    9.5057 O.co2   1  UNL1       -0.5759
     17 C          64.1378   90.9762   12.1444 C.1     1  UNL1       -0.0405
     18 C          63.2589   89.9388   11.5110 C.1     1  UNL1       -0.0583
     19 C          66.7177   92.7699   16.2829 C.3     1  UNL1        0.0521
     20 C          66.3067   92.9104   14.8472 C.ar    1  UNL1        0.0600
     21 C          66.7745   94.0883   14.0450 C.ar    1  UNL1        0.0148
     22 C          66.3635   94.2289   12.6092 C.ar    1  UNL1        0.0034
     23 C          65.4846   93.1915   11.9757 C.ar    1  UNL1        0.0276
     24 C          65.0167   92.0136   12.7779 C.ar    1  UNL1        0.1224
     25 N          65.4278   91.8731   14.2136 N.ar    1  UNL1       -0.2414
@<TRIPOS>UNITY_ATOM_ATTR
14 1
charge 1
16 1
charge -1
@<TRIPOS>BOND
     1    19    20    1
     2    20    21   ar
     3    21    22   ar
     4    22    23   ar
     5    23    24   ar
     6    24    17    1
     7    17    18    3
     8    18     1    1
     9     1     2    2
    10     2     3    1
    11     3     4    1
    12     4     5    1
    13     5     8    1
    14     8     9   ar
    15     9    10   ar
    16    10    11   ar
    17    11    12   ar
    18    12    13   ar
    19    13    14    1
    20    14    15    2
    21    14    16    1
    22     5     6    1
    23     6     7    1
    24    24    25   ar
    25    25    20   ar
    26     7     2    1
    27    13     8   ar
@<TRIPOS>MOLECULE
*****
 25 27 0 0 0
SMALL
GASTEIGER

@<TRIPOS>ATOM
      1 C          62.8350   87.1449   16.8016 C.2     1  UNL1        0.0412
      2 C          63.4024   88.3110   16.0479 C.2     1  UNL1       -0.0326
      3 C          63.9119   88.1240   14.6495 C.3     1  UNL1        0.0442
      4 C          64.4793   89.2901   13.8958 C.3     1  UNL1        0.0967
      5 N          64.5373   90.6434   14.5404 N.pl3   1  UNL1       -0.2877
      6 C          64.0278   90.8304   15.9388 C.3     1  UNL1        0.0967
      7 C          63.4603   89.6642   16.6925 C.3     1  UNL1        0.0442
      8 C          65.1047   91.8095   13.7867 C.ar    1  UNL1        0.2023
      9 N          66.1180   92.7027   14.4389 N.ar    1  UNL1       -0.2235
     10 C          66.6854   93.8689   13.6852 C.ar    1  UNL1        0.1007
     11 C          66.2395   94.1418   12.2792 C.ar    1  UNL1        0.0271
     12 C          65.2263   93.2485   11.6269 C.ar    1  UNL1        0.0799
     13 C          64.6589   92.0824   12.3808 C.ar    1  UNL1        0.3211
     14 N          63.6456   91.1891   11.7285 N.pl3   1  UNL1        0.0839
     15 O          62.4031   90.7965   12.4716 O.2     1  UNL1        0.0416
     16 O          63.8748   90.6884   10.3332 O.co2   1  UNL1       -0.5759
     17 C          62.7190   84.4385   15.5124 C.1     1  UNL1       -0.0405
     18 C          62.7770   85.7917   16.1570 C.1     1  UNL1       -0.0583
     19 C          60.0130   80.2208   14.1383 C.3     1  UNL1        0.0521
     20 C          61.3080   80.9765   14.1808 C.ar    1  UNL1        0.0600
     21 C          62.5451   80.3790   13.5786 C.ar    1  UNL1        0.0148
     22 C          63.8401   81.1347   13.6210 C.ar    1  UNL1        0.0034
     23 C          63.8981   82.4878   14.2656 C.ar    1  UNL1        0.0276
     24 C          62.6611   83.0853   14.8678 C.ar    1  UNL1        0.1224
     25 N          61.3660   82.3296   14.8253 N.ar    1  UNL1       -0.2414
@<TRIPOS>UNITY_ATOM_ATTR
14 1
charge 1
16 1
charge -1
@<TRIPOS>BOND
     1    19    20    1
     2    20    21   ar
     3    21    22   ar
     4    22    23   ar
     5    23    24   ar
     6    24    17    1
     7    17    18    3
     8    18     1    1
     9     1     2    2
    10     2     3    1
    11     3     4    1
    12     4     5    1
    13     5     8    1
    14     8     9   ar
    15     9    10   ar
    16    10    11   ar
    17    11    12   ar
    18    12    13   ar
    19    13    14    1
    20    14    15    2
    21    14    16    1
    22     5     6    1
    23     6     7    1
    24    24    25   ar
    25    25    20   ar
    26     7     2    1
    27    13     8   ar
@<TRIPOS>MOLECULE
*****
 25 27 0 0 0
SMALL
GASTEIGER

@<TRIPOS>ATOM
      1 C          62.1469   89.3992   10.3684 C.2     1  UNL1        0.0412
      2 C          62.2350   88.0151   10.9397 C.2     1  UNL1       -0.0326
      3 C          63.2504   87.7041   11.9991 C.3     1  UNL1        0.0442
      4 C          63.3384   86.3200   12.5703 C.3     1  UNL1        0.0967
      5 N          62.4110   85.2467   12.0822 N.pl3   1  UNL1       -0.2877
      6 C          61.3956   85.5577   11.0228 C.3     1  UNL1        0.0967
      7 C          61.3076   86.9419   10.4516 C.3     1  UNL1        0.0442
      8 C          62.4991   83.8626   12.6535 C.ar    1  UNL1        0.2023
      9 N          61.9095   83.5685   14.0010 N.ar    1  UNL1       -0.2235
     10 C          61.9976   82.1843   14.5723 C.ar    1  UNL1        0.1007
     11 C          62.6752   81.0942   13.7960 C.ar    1  UNL1        0.0271
     12 C          63.2647   81.3884   12.4484 C.ar    1  UNL1        0.0799
     13 C          63.1766   82.7726   11.8771 C.ar    1  UNL1        0.3211
     14 N          63.7662   83.0667   10.5296 N.pl3   1  UNL1        0.0839
     15 O          63.1170   84.0775    9.6314 O.2     1  UNL1        0.0416
     16 O          65.0049   82.3499   10.0802 O.co2   1  UNL1       -0.5759
     17 C          64.0016   91.5456   11.3447 C.1     1  UNL1       -0.0405
     18 C          63.0743   90.4725   10.8566 C.1     1  UNL1       -0.0583
     19 C          66.5288   96.0150   10.5454 C.3     1  UNL1        0.0521
     20 C          66.1926   94.8535   11.4331 C.ar    1  UNL1        0.0600
     21 C          66.7837   94.7653   12.8089 C.ar    1  UNL1        0.0148
     22 C          66.4475   93.6039   13.6966 C.ar    1  UNL1        0.0034
     23 C          65.5202   92.5306   13.2085 C.ar    1  UNL1        0.0276
     24 C          64.9290   92.6189   11.8328 C.ar    1  UNL1        0.1224
     25 N          65.2652   93.7803   10.9451 N.ar    1  UNL1       -0.2414
@<TRIPOS>UNITY_ATOM_ATTR
14 1
charge 1
16 1
charge -1
@<TRIPOS>BOND
     1    19    20    1
     2    20    21   ar
     3    21    22   ar
     4    22    23   ar
     5    23    24   ar
     6    24    17    1
     7    17    18    3
     8    18     1    1
     9     1     2    2
    10     2     3    1
    11     3     4    1
    12     4     5    1
    13     5     8    1
    14     8     9   ar
    15     9    10   ar
    16    10    11   ar
    17    11    12   ar
    18    12    13   ar
    19    13    14    1
    20    14    15    2
    21    14    16    1
    22     5     6    1
    23     6     7    1
    24    24    25   ar
    25    25    20   ar
    26     7     2    1
    27    13     8   ar
@<TRIPOS>MOLECULE
*****
 25 27 0 0 0
SMALL
GASTEIGER

@<TRIPOS>ATOM
      1 C          59.2478   88.6074    7.6088 C.2     1  UNL1        0.0412
      2 C          60.1439   88.3560    8.7851 C.2     1  UNL1       -0.0326
      3 C          61.4677   89.0548    8.8823 C.3     1  UNL1        0.0442
      4 C          62.3638   88.8034   10.0586 C.3     1  UNL1        0.0967
      5 N          61.9362   87.8533   11.1378 N.pl3   1  UNL1       -0.2877
      6 C          60.6125   87.1545   11.0405 C.3     1  UNL1        0.0967
      7 C          59.7163   87.4060    9.8642 C.3     1  UNL1        0.0442
      8 C          62.8324   87.6019   12.3141 C.ar    1  UNL1        0.2023
      9 N          63.1270   86.1958   12.7455 N.ar    1  UNL1       -0.2235
     10 C          64.0232   85.9444   13.9218 C.ar    1  UNL1        0.1007
     11 C          64.6247   87.0992   14.6667 C.ar    1  UNL1        0.0271
     12 C          64.3300   88.5053   14.2353 C.ar    1  UNL1        0.0799
     13 C          63.4338   88.7566   13.0589 C.ar    1  UNL1        0.3211
     14 N          63.1392   90.1627   12.6275 N.pl3   1  UNL1        0.0839
     15 O          64.2653   91.1023   12.3132 O.2     1  UNL1        0.0416
     16 O          61.7183   90.6290   12.5103 O.co2   1  UNL1       -0.5759
     17 C          60.1030   90.5076    5.4506 C.1     1  UNL1       -0.0405
     18 C          59.6754   89.5576    6.5297 C.1     1  UNL1       -0.0583
     19 C          63.7596   92.3019    2.2242 C.3     1  UNL1        0.0521
     20 C          62.3589   92.3549    2.7583 C.ar    1  UNL1        0.0600
     21 C          61.3858   93.3579    2.2133 C.ar    1  UNL1        0.0148
     22 C          59.9851   93.4108    2.7474 C.ar    1  UNL1        0.0034
     23 C          59.5575   92.4608    3.8265 C.ar    1  UNL1        0.0276
     24 C          60.5306   91.4578    4.3715 C.ar    1  UNL1        0.1224
     25 N          61.9313   91.4048    3.8374 N.ar    1  UNL1       -0.2414
@<TRIPOS>UNITY_ATOM_ATTR
14 1
charge 1
16 1
charge -1
@<TRIPOS>BOND
     1    19    20    1
     2    20    21   ar
     3    21    22   ar
     4    22    23   ar
     5    23    24   ar
     6    24    17    1
     7    17    18    3
     8    18     1    1
     9     1     2    2
    10     2     3    1
    11     3     4    1
    12     4     5    1
    13     5     8    1
    14     8     9   ar
    15     9    10   ar
    16    10    11   ar
    17    11    12   ar
    18    12    13   ar
    19    13    14    1
    20    14    15    2
    21    14    16    1
    22     5     6    1
    23     6     7    1
    24    24    25   ar
    25    25    20   ar
    26     7     2    1
    27    13     8   ar
@<TRIPOS>MOLECULE
*****
 25 27 0 0 0
SMALL
GASTEIGER

@<TRIPOS>ATOM
      1 C          59.2286   88.6532    7.6865 C.2     1  UNL1        0.0412
      2 C          60.1274   88.4212    8.8647 C.2     1  UNL1       -0.0326
      3 C          61.4525   89.1194    8.9461 C.3     1  UNL1        0.0442
      4 C          62.3513   88.8874   10.1244 C.3     1  UNL1        0.0967
      5 N          61.9250   87.9573   11.2213 N.pl3   1  UNL1       -0.2877
      6 C          60.5999   87.2591   11.1399 C.3     1  UNL1        0.0967
      7 C          59.7010   87.4911    9.9616 C.3     1  UNL1        0.0442
      8 C          62.8238   87.7254   12.3995 C.ar    1  UNL1        0.2023
      9 N          63.2727   88.8839   13.2399 N.ar    1  UNL1       -0.2235
     10 C          64.1715   88.6520   14.4182 C.ar    1  UNL1        0.1007
     11 C          64.6214   87.2614   14.7561 C.ar    1  UNL1        0.0271
     12 C          64.1725   86.1029   13.9157 C.ar    1  UNL1        0.0799
     13 C          63.2736   86.3349   12.7374 C.ar    1  UNL1        0.3211
     14 N          62.8247   85.1764   11.8970 N.pl3   1  UNL1        0.0839
     15 O          62.8164   85.2932   10.4016 O.2     1  UNL1        0.0416
     16 O          62.3839   83.9009   12.5521 O.co2   1  UNL1       -0.5759
     17 C          60.0811   90.5134    5.4926 C.1     1  UNL1       -0.0405
     18 C          59.6549   89.5833    6.5895 C.1     1  UNL1       -0.0583
     19 C          63.7419   92.2670    2.2487 C.3     1  UNL1        0.0521
     20 C          62.3379   92.3203    2.7737 C.ar    1  UNL1        0.0600
     21 C          61.3601   93.3036    2.2020 C.ar    1  UNL1        0.0148
     22 C          59.9560   93.3569    2.7270 C.ar    1  UNL1        0.0034
     23 C          59.5297   92.4268    3.8239 C.ar    1  UNL1        0.0276
     24 C          60.5074   91.4435    4.3957 C.ar    1  UNL1        0.1224
     25 N          61.9115   91.3902    3.8706 N.ar    1  UNL1       -0.2414
@<TRIPOS>UNITY_ATOM_ATTR
14 1
charge 1
16 1
charge -1
@<TRIPOS>BOND
     1    19    20    1
     2    20    21   ar
     3    21    22   ar
     4    22    23   ar
     5    23    24   ar
     6    24    17    1
     7    17    18    3
     8    18     1    1
     9     1     2    2
    10     2     3    1
    11     3     4    1
    12     4     5    1
    13     5     8    1
    14     8     9   ar
    15     9    10   ar
    16    10    11   ar
    17    11    12   ar
    18    12    13   ar
    19    13    14    1
    20    14    15    2
    21    14    16    1
    22     5     6    1
    23     6     7    1
    24    24    25   ar
    25    25    20   ar
    26     7     2    1
    27    13     8   ar
@<TRIPOS>MOLECULE
*****
 25 27 0 0 0
SMALL
GASTEIGER

@<TRIPOS>ATOM
      1 C          61.0405   88.1865    9.4264 C.2     1  UNL1        0.0412
      2 C          61.8905   88.9127   10.4264 C.2     1  UNL1       -0.0326
      3 C          62.0742   90.3974   10.3170 C.3     1  UNL1        0.0442
      4 C          62.9242   91.1237   11.3170 C.3     1  UNL1        0.0967
      5 N          63.5906   90.3652   12.4264 N.pl3   1  UNL1       -0.2877
      6 C          63.4070   88.8805   12.5357 C.3     1  UNL1        0.0967
      7 C          62.5569   88.1543   11.5357 C.3     1  UNL1        0.0442
      8 C          64.4407   91.0915   13.4263 C.ar    1  UNL1        0.2023
      9 N          65.2787   92.2573   12.9922 N.ar    1  UNL1       -0.2235
     10 C          66.1287   92.9836   13.9922 C.ar    1  UNL1        0.1007
     11 C          66.1408   92.5440   15.4263 C.ar    1  UNL1        0.0271
     12 C          65.3028   91.3781   15.8604 C.ar    1  UNL1        0.0799
     13 C          64.4527   90.6518   14.8604 C.ar    1  UNL1        0.3211
     14 N          63.6147   89.4859   15.2944 N.pl3   1  UNL1        0.0839
     15 O          64.1910   88.1012   15.2793 O.2     1  UNL1        0.0416
     16 O          62.2003   89.7049   15.7437 O.co2   1  UNL1       -0.5759
     17 C          59.7076   89.7034    7.2077 C.1     1  UNL1       -0.0405
     18 C          60.3740   88.9449    8.3170 C.1     1  UNL1       -0.0583
     19 C          60.0234   92.8502    3.0848 C.3     1  UNL1        0.0521
     20 C          59.1991   92.0352    4.0369 C.ar    1  UNL1        0.0600
     21 C          57.7085   91.9787    3.8796 C.ar    1  UNL1        0.0148
     22 C          56.8842   91.1637    4.8317 C.ar    1  UNL1        0.0034
     23 C          57.5506   90.4053    5.9410 C.ar    1  UNL1        0.0276
     24 C          59.0412   90.4618    6.0983 C.ar    1  UNL1        0.1224
     25 N          59.8654   91.2768    5.1463 N.ar    1  UNL1       -0.2414
@<TRIPOS>UNITY_ATOM_ATTR
14 1
charge 1
16 1
charge -1
@<TRIPOS>BOND
     1    19    20    1
     2    20    21   ar
     3    21    22   ar
     4    22    23   ar
     5    23    24   ar
     6    24    17    1
     7    17    18    3
     8    18     1    1
     9     1     2    2
    10     2     3    1
    11     3     4    1
    12     4     5    1
    13     5     8    1
    14     8     9   ar
    15     9    10   ar
    16    10    11   ar
    17    11    12   ar
    18    12    13   ar
    19    13    14    1
    20    14    15    2
    21    14    16    1
    22     5     6    1
    23     6     7    1
    24    24    25   ar
    25    25    20   ar
    26     7     2    1
    27    13     8   ar
