@<TRIPOS>MOLECULE
*****
 27 30 0 0 0
SMALL
GASTEIGER

@<TRIPOS>ATOM
      1 C          64.3233   89.5023   14.9225 C.ar    1  UNL1        0.0153
      2 C          64.6359   88.1284   14.4080 C.ar    1  UNL1        0.0043
      3 C          64.0582   86.9231   15.0888 C.ar    1  UNL1        0.0369
      4 C          63.1679   87.0918   16.2841 C.ar    1  UNL1        0.1386
      5 C          62.8553   88.4656   16.7987 C.ar    1  UNL1        0.0369
      6 C          63.4330   89.6709   16.1179 C.ar    1  UNL1        0.0043
      7 C          67.4990   93.6147   14.9832 C.3     1  UNL1        0.1428
      8 N          66.4889   92.7637   14.2720 N.am    1  UNL1       -0.1793
      9 N          65.9111   91.5585   14.9528 N.2     1  UNL1       -0.1801
     10 C          64.9011   90.7075   14.2416 C.2     1  UNL1        0.0766
     11 C          64.4688   91.0619   12.8497 C.3     1  UNL1        0.0505
     12 C          63.4984   90.4167   11.9053 C.3     1  UNL1        0.0065
     13 C          63.4764   91.2233   10.6408 C.3     1  UNL1        0.0009
     14 C          64.4333   92.3669   10.8037 C.3     1  UNL1        0.0095
     15 C          65.0467   92.2672   12.1689 C.3     1  UNL1        0.0840
     16 C          66.0567   93.1181   12.8801 C.2     1  UNL1        0.2442
     17 O          66.6345   94.3233   12.1993 O.2     1  UNL1       -0.2731
     18 O          62.5902   85.8864   16.9650 O.3     1  UNL1       -0.4754
     19 C          62.8643   84.5152   16.4224 C.3     1  UNL1        0.2068
     20 C          62.1765   84.0517   15.1726 C.3     1  UNL1        0.0646
     21 C          62.8432   83.0500   14.2770 C.3     1  UNL1        0.0759
     22 N          63.0861   83.3789   12.8338 N.3     1  UNL1       -0.2726
     23 C          62.4824   84.6142   12.2342 C.3     1  UNL1        0.0721
     24 C          62.7253   84.9431   10.7909 C.3     1  UNL1        0.0174
     25 C          63.5719   84.0365    9.9473 C.3     1  UNL1        0.0029
     26 C          64.1755   82.8012   10.5469 C.3     1  UNL1        0.0174
     27 C          63.9325   82.4724   11.9902 C.3     1  UNL1        0.0721
@<TRIPOS>BOND
     1     7     8    1
     2     8     9    1
     3     9    10    2
     4    10     1    1
     5     1     2   ar
     6     2     3   ar
     7     3     4   ar
     8     4    18    1
     9    18    19    1
    10    19    20    1
    11    20    21    1
    12    21    22    1
    13    22    23    1
    14    23    24    1
    15    24    25    1
    16    25    26    1
    17    26    27    1
    18     4     5   ar
    19     5     6   ar
    20    10    11    1
    21    11    12    1
    22    12    13    1
    23    13    14    1
    24    14    15    1
    25    15    16    1
    26    16    17    2
    27    16     8   am
    28     6     1   ar
    29    15    11    1
    30    27    22    1
@<TRIPOS>MOLECULE
*****
 27 30 0 0 0
SMALL
GASTEIGER

@<TRIPOS>ATOM
      1 C          63.1302   89.2392   12.1973 C.ar    1  UNL1        0.0153
      2 C          63.6954   88.5908   13.4262 C.ar    1  UNL1        0.0043
      3 C          64.4801   89.4060   14.4109 C.ar    1  UNL1        0.0369
      4 C          64.6996   90.8696   14.1667 C.ar    1  UNL1        0.1386
      5 C          64.1344   91.5180   12.9378 C.ar    1  UNL1        0.0369
      6 C          63.3497   90.7027   11.9531 C.ar    1  UNL1        0.0043
      7 C          59.8892   88.9742    8.1444 C.3     1  UNL1        0.1428
      8 N          60.7250   88.2915    9.1862 N.am    1  UNL1       -0.1793
      9 N          61.5097   89.1066   10.1708 N.2     1  UNL1       -0.1801
     10 C          62.3455   88.4239   11.2127 C.2     1  UNL1        0.0766
     11 C          62.3965   86.9258   11.2697 C.3     1  UNL1        0.0505
     12 C          63.1259   85.9803   12.1774 C.3     1  UNL1        0.0065
     13 C          62.7920   84.5807   11.7537 C.3     1  UNL1        0.0009
     14 C          61.8562   84.6612   10.5841 C.3     1  UNL1        0.0095
     15 C          61.6117   86.1106   10.2850 C.3     1  UNL1        0.0840
     16 C          60.7760   86.7934    9.2433 C.2     1  UNL1        0.2442
     17 O          59.9912   85.9782    8.2586 O.2     1  UNL1       -0.2731
     18 O          65.4843   91.6848   15.1514 O.3     1  UNL1       -0.4754
     19 C          66.8495   92.1892   14.7884 C.3     1  UNL1        0.2068
     20 C          67.0112   93.5606   14.2027 C.3     1  UNL1        0.0646
     21 C          66.2679   93.9356   12.9549 C.3     1  UNL1        0.0759
     22 N          66.8960   93.7105   11.6115 N.3     1  UNL1       -0.2726
     23 C          67.0015   94.8431   10.6336 C.3     1  UNL1        0.0721
     24 C          67.6296   94.6180    9.2902 C.3     1  UNL1        0.0174
     25 C          68.1523   93.2603    8.9246 C.3     1  UNL1        0.0029
     26 C          68.0469   92.1278    9.9025 C.3     1  UNL1        0.0174
     27 C          67.4188   92.3529   11.2459 C.3     1  UNL1        0.0721
@<TRIPOS>BOND
     1     7     8    1
     2     8     9    1
     3     9    10    2
     4    10     1    1
     5     1     2   ar
     6     2     3   ar
     7     3     4   ar
     8     4    18    1
     9    18    19    1
    10    19    20    1
    11    20    21    1
    12    21    22    1
    13    22    23    1
    14    23    24    1
    15    24    25    1
    16    25    26    1
    17    26    27    1
    18     4     5   ar
    19     5     6   ar
    20    10    11    1
    21    11    12    1
    22    12    13    1
    23    13    14    1
    24    14    15    1
    25    15    16    1
    26    16    17    2
    27    16     8   am
    28     6     1   ar
    29    15    11    1
    30    27    22    1
@<TRIPOS>MOLECULE
*****
 27 30 0 0 0
SMALL
GASTEIGER

@<TRIPOS>ATOM
      1 C          64.4373   89.9342   14.7880 C.ar    1  UNL1        0.0153
      2 C          64.7280   88.5362   14.3286 C.ar    1  UNL1        0.0043
      3 C          64.1803   87.3668   15.0919 C.ar    1  UNL1        0.0369
      4 C          63.3419   87.5955   16.3145 C.ar    1  UNL1        0.1386
      5 C          63.0513   88.9935   16.7739 C.ar    1  UNL1        0.0369
      6 C          63.5990   90.1630   16.0106 C.ar    1  UNL1        0.0043
      7 C          64.6451   92.7706   10.4392 C.3     1  UNL1        0.1428
      8 N          65.0889   92.5217   11.8503 N.am    1  UNL1       -0.1793
      9 N          64.5412   91.3525   12.6136 N.2     1  UNL1       -0.1801
     10 C          64.9851   91.1036   14.0247 C.2     1  UNL1        0.0766
     11 C          65.9766   92.0241   14.6724 C.3     1  UNL1        0.0505
     12 C          66.5955   92.0316   16.0387 C.3     1  UNL1        0.0065
     13 C          67.5257   93.2055   16.1198 C.3     1  UNL1        0.0009
     14 C          67.4817   93.9236   14.8036 C.3     1  UNL1        0.0095
     15 C          66.5243   93.1934   13.9090 C.3     1  UNL1        0.0840
     16 C          66.0804   93.4422   12.4979 C.2     1  UNL1        0.2442
     17 O          66.6281   94.6116   11.7346 O.2     1  UNL1       -0.2731
     18 O          62.7942   86.4261   17.0777 O.3     1  UNL1       -0.4754
     19 C          61.8253   85.4887   16.4203 C.3     1  UNL1        0.2068
     20 C          62.3197   84.2227   15.7856 C.3     1  UNL1        0.0646
     21 C          63.6028   84.2247   15.0086 C.3     1  UNL1        0.0759
     22 N          63.5824   83.9944   13.5265 N.3     1  UNL1       -0.2726
     23 C          64.4243   82.9087   12.9245 C.3     1  UNL1        0.0721
     24 C          64.4040   82.6785   11.4424 C.3     1  UNL1        0.0174
     25 C          63.5417   83.5341   10.5623 C.3     1  UNL1        0.0029
     26 C          62.6998   84.6198   11.1642 C.3     1  UNL1        0.0174
     27 C          62.7202   84.8500   12.6464 C.3     1  UNL1        0.0721
@<TRIPOS>BOND
     1     7     8    1
     2     8     9    1
     3     9    10    2
     4    10     1    1
     5     1     2   ar
     6     2     3   ar
     7     3     4   ar
     8     4    18    1
     9    18    19    1
    10    19    20    1
    11    20    21    1
    12    21    22    1
    13    22    23    1
    14    23    24    1
    15    24    25    1
    16    25    26    1
    17    26    27    1
    18     4     5   ar
    19     5     6   ar
    20    10    11    1
    21    11    12    1
    22    12    13    1
    23    13    14    1
    24    14    15    1
    25    15    16    1
    26    16    17    2
    27    16     8   am
    28     6     1   ar
    29    15    11    1
    30    27    22    1
@<TRIPOS>MOLECULE
*****
 27 30 0 0 0
SMALL
GASTEIGER

@<TRIPOS>ATOM
      1 C          63.2823   90.3594   12.0596 C.ar    1  UNL1        0.0153
      2 C          62.3064   90.8984   11.0560 C.ar    1  UNL1        0.0043
      3 C          61.3410   89.9729   10.3767 C.ar    1  UNL1        0.0369
      4 C          61.3515   88.5084   10.7011 C.ar    1  UNL1        0.1386
      5 C          62.3274   87.9694   11.7046 C.ar    1  UNL1        0.0369
      6 C          63.2928   88.8949   12.3839 C.ar    1  UNL1        0.0043
      7 C          65.3989   92.2504   16.4121 C.3     1  UNL1        0.1428
      8 N          65.3060   92.2304   14.9151 N.am    1  UNL1       -0.1793
      9 N          64.3406   91.3050   14.2358 N.2     1  UNL1       -0.1801
     10 C          64.2477   91.2850   12.7388 C.2     1  UNL1        0.0766
     11 C          65.1202   92.1905   11.9211 C.3     1  UNL1        0.0505
     12 C          65.2500   92.3908   10.4402 C.3     1  UNL1        0.0065
     13 C          66.2956   93.4401   10.2043 C.3     1  UNL1        0.0009
     14 C          66.8120   93.8884   11.5393 C.3     1  UNL1        0.0095
     15 C          66.0856   93.1161   12.6004 C.3     1  UNL1        0.0840
     16 C          66.1785   93.1360   14.0974 C.2     1  UNL1        0.2442
     17 O          67.1439   94.0616   14.7767 O.2     1  UNL1       -0.2731
     18 O          60.3860   87.5829   10.0218 O.3     1  UNL1       -0.4754
     19 C          60.8927   86.5243    9.0878 C.3     1  UNL1        0.2068
     20 C          62.3652   86.3880    8.8364 C.3     1  UNL1        0.0646
     21 C          63.0026   85.0302    8.8308 C.3     1  UNL1        0.0759
     22 N          63.2355   84.3056   10.1234 N.3     1  UNL1       -0.2726
     23 C          64.1957   83.1545   10.1754 C.3     1  UNL1        0.0721
     24 C          64.4286   82.4299   11.4680 C.3     1  UNL1        0.0174
     25 C          63.7012   82.8565   12.7086 C.3     1  UNL1        0.0029
     26 C          62.7409   84.0076   12.6566 C.3     1  UNL1        0.0174
     27 C          62.5081   84.7322   11.3639 C.3     1  UNL1        0.0721
@<TRIPOS>BOND
     1     7     8    1
     2     8     9    1
     3     9    10    2
     4    10     1    1
     5     1     2   ar
     6     2     3   ar
     7     3     4   ar
     8     4    18    1
     9    18    19    1
    10    19    20    1
    11    20    21    1
    12    21    22    1
    13    22    23    1
    14    23    24    1
    15    24    25    1
    16    25    26    1
    17    26    27    1
    18     4     5   ar
    19     5     6   ar
    20    10    11    1
    21    11    12    1
    22    12    13    1
    23    13    14    1
    24    14    15    1
    25    15    16    1
    26    16    17    2
    27    16     8   am
    28     6     1   ar
    29    15    11    1
    30    27    22    1
@<TRIPOS>MOLECULE
*****
 27 30 0 0 0
SMALL
GASTEIGER

@<TRIPOS>ATOM
      1 C          62.2553   85.1001   11.0565 C.ar    1  UNL1        0.0153
      2 C          61.2778   86.0861   11.6242 C.ar    1  UNL1        0.0043
      3 C          60.8049   87.2390   10.7892 C.ar    1  UNL1        0.0369
      4 C          61.3096   87.4058    9.3865 C.ar    1  UNL1        0.1386
      5 C          62.2871   86.4198    8.8189 C.ar    1  UNL1        0.0369
      6 C          62.7599   85.2669    9.6539 C.ar    1  UNL1        0.0043
      7 C          62.7556   79.9799   11.7876 C.3     1  UNL1        0.1428
      8 N          62.9782   81.3871   12.2570 N.am    1  UNL1       -0.1793
      9 N          62.5055   82.5400   11.4221 N.2     1  UNL1       -0.1801
     10 C          62.7281   83.9472   11.8916 C.2     1  UNL1        0.0766
     11 C          63.4235   84.2013   13.1961 C.3     1  UNL1        0.0505
     12 C          63.7815   85.4698   13.9121 C.3     1  UNL1        0.0065
     13 C          64.4756   85.1008   15.1897 C.3     1  UNL1        0.0009
     14 C          64.5465   83.6043   15.2632 C.3     1  UNL1        0.0095
     15 C          63.8963   83.0484   14.0311 C.3     1  UNL1        0.0840
     16 C          63.6737   81.6413   13.5616 C.2     1  UNL1        0.2442
     17 O          64.1464   80.4883   14.3965 O.2     1  UNL1       -0.2731
     18 O          60.8367   88.5587    8.5516 O.3     1  UNL1       -0.4754
     19 C          60.4889   89.8640    9.2035 C.3     1  UNL1        0.2068
     20 C          61.1434   90.2552   10.4952 C.3     1  UNL1        0.0646
     21 C          62.5828   90.6769   10.5091 C.3     1  UNL1        0.0759
     22 N          63.3879   90.5551   11.7689 N.3     1  UNL1       -0.2726
     23 C          64.3315   91.6518   12.1648 C.3     1  UNL1        0.0721
     24 C          65.1366   91.5301   13.4246 C.3     1  UNL1        0.0174
     25 C          64.9980   90.3116   14.2885 C.3     1  UNL1        0.0029
     26 C          64.0543   89.2149   13.8926 C.3     1  UNL1        0.0174
     27 C          63.2493   89.3367   12.6327 C.3     1  UNL1        0.0721
@<TRIPOS>BOND
     1     7     8    1
     2     8     9    1
     3     9    10    2
     4    10     1    1
     5     1     2   ar
     6     2     3   ar
     7     3     4   ar
     8     4    18    1
     9    18    19    1
    10    19    20    1
    11    20    21    1
    12    21    22    1
    13    22    23    1
    14    23    24    1
    15    24    25    1
    16    25    26    1
    17    26    27    1
    18     4     5   ar
    19     5     6   ar
    20    10    11    1
    21    11    12    1
    22    12    13    1
    23    13    14    1
    24    14    15    1
    25    15    16    1
    26    16    17    2
    27    16     8   am
    28     6     1   ar
    29    15    11    1
    30    27    22    1
@<TRIPOS>MOLECULE
*****
 27 30 0 0 0
SMALL
GASTEIGER

@<TRIPOS>ATOM
      1 C          63.1995   90.2820   11.4283 C.ar    1  UNL1        0.0153
      2 C          62.3554   90.7124   10.2655 C.ar    1  UNL1        0.0043
      3 C          61.3937   89.7467    9.6388 C.ar    1  UNL1        0.0369
      4 C          61.2763   88.3508   10.1749 C.ar    1  UNL1        0.1386
      5 C          62.1205   87.9204   11.3377 C.ar    1  UNL1        0.0369
      6 C          63.0822   88.8861   11.9645 C.ar    1  UNL1        0.0043
      7 C          66.6940   94.0986   10.9559 C.3     1  UNL1        0.1428
      8 N          65.9084   93.1560   11.8188 N.am    1  UNL1       -0.1793
      9 N          64.9468   92.1903   11.1922 N.2     1  UNL1       -0.1801
     10 C          64.1612   91.2477   12.0550 C.2     1  UNL1        0.0766
     11 C          64.3373   91.2710   13.5445 C.3     1  UNL1        0.0505
     12 C          63.7054   90.4677   14.6424 C.3     1  UNL1        0.0065
     13 C          64.2765   90.9371   15.9476 C.3     1  UNL1        0.0009
     14 C          65.2614   92.0303   15.6563 C.3     1  UNL1        0.0095
     15 C          65.2989   92.2367   14.1711 C.3     1  UNL1        0.0840
     16 C          66.0845   93.1792   13.3082 C.2     1  UNL1        0.2442
     17 O          67.0461   94.1450   13.9348 O.2     1  UNL1       -0.2731
     18 O          60.3147   87.3851    9.5482 O.3     1  UNL1       -0.4754
     19 C          60.8306   86.2148    8.7646 C.3     1  UNL1        0.2068
     20 C          62.3059   86.0462    8.5519 C.3     1  UNL1        0.0646
     21 C          62.9364   84.6942    8.7079 C.3     1  UNL1        0.0759
     22 N          63.2374   84.1604   10.0771 N.3     1  UNL1       -0.2726
     23 C          64.2377   83.0559   10.2482 C.3     1  UNL1        0.0721
     24 C          64.5387   82.5221   11.6174 C.3     1  UNL1        0.0174
     25 C          63.8393   83.0930   12.8154 C.3     1  UNL1        0.0029
     26 C          62.8390   84.1976   12.6442 C.3     1  UNL1        0.0174
     27 C          62.5381   84.7313   11.2750 C.3     1  UNL1        0.0721
@<TRIPOS>BOND
     1     7     8    1
     2     8     9    1
     3     9    10    2
     4    10     1    1
     5     1     2   ar
     6     2     3   ar
     7     3     4   ar
     8     4    18    1
     9    18    19    1
    10    19    20    1
    11    20    21    1
    12    21    22    1
    13    22    23    1
    14    23    24    1
    15    24    25    1
    16    25    26    1
    17    26    27    1
    18     4     5   ar
    19     5     6   ar
    20    10    11    1
    21    11    12    1
    22    12    13    1
    23    13    14    1
    24    14    15    1
    25    15    16    1
    26    16    17    2
    27    16     8   am
    28     6     1   ar
    29    15    11    1
    30    27    22    1
@<TRIPOS>MOLECULE
*****
 27 30 0 0 0
SMALL
GASTEIGER

@<TRIPOS>ATOM
      1 C          62.6854   86.4707   11.7476 C.ar    1  UNL1        0.0153
      2 C          63.1285   87.7196   12.4504 C.ar    1  UNL1        0.0043
      3 C          62.9817   89.0517   11.7766 C.ar    1  UNL1        0.0369
      4 C          62.3917   89.1348   10.4000 C.ar    1  UNL1        0.1386
      5 C          61.9487   87.8859    9.6972 C.ar    1  UNL1        0.0369
      6 C          62.0955   86.5538   10.3710 C.ar    1  UNL1        0.0043
      7 C          62.3488   83.5249   16.0149 C.3     1  UNL1        0.1428
      8 N          62.6640   83.6658   14.5551 N.am    1  UNL1       -0.1793
      9 N          62.5171   84.9977   13.8812 N.2     1  UNL1       -0.1801
     10 C          62.8323   85.1386   12.4214 C.2     1  UNL1        0.0766
     11 C          63.2944   83.9474   11.6357 C.3     1  UNL1        0.0505
     12 C          63.6758   83.7823   10.1944 C.3     1  UNL1        0.0065
     13 C          64.0584   82.3482    9.9776 C.3     1  UNL1        0.0009
     14 C          63.9134   81.6270   11.2848 C.3     1  UNL1        0.0095
     15 C          63.4413   82.6154   12.3096 C.3     1  UNL1        0.0840
     16 C          63.1261   82.4746   13.7693 C.2     1  UNL1        0.2442
     17 O          63.2729   81.1426   14.4433 O.2     1  UNL1       -0.2731
     18 O          62.2449   90.4669    9.7262 O.3     1  UNL1       -0.4754
     19 C          62.9588   91.6670   10.2737 C.3     1  UNL1        0.2068
     20 C          64.4492   91.6416   10.4410 C.3     1  UNL1        0.0646
     21 C          65.1466   92.7793   11.1260 C.3     1  UNL1        0.0759
     22 N          65.5555   92.6521   12.5636 N.3     1  UNL1       -0.2726
     23 C          66.4766   93.6664   13.1739 C.3     1  UNL1        0.0721
     24 C          66.8855   93.5391   14.6115 C.3     1  UNL1        0.0174
     25 C          66.3733   92.3974   15.4387 C.3     1  UNL1        0.0029
     26 C          65.4522   91.3830   14.8283 C.3     1  UNL1        0.0174
     27 C          65.0433   91.5104   13.3907 C.3     1  UNL1        0.0721
@<TRIPOS>BOND
     1     7     8    1
     2     8     9    1
     3     9    10    2
     4    10     1    1
     5     1     2   ar
     6     2     3   ar
     7     3     4   ar
     8     4    18    1
     9    18    19    1
    10    19    20    1
    11    20    21    1
    12    21    22    1
    13    22    23    1
    14    23    24    1
    15    24    25    1
    16    25    26    1
    17    26    27    1
    18     4     5   ar
    19     5     6   ar
    20    10    11    1
    21    11    12    1
    22    12    13    1
    23    13    14    1
    24    14    15    1
    25    15    16    1
    26    16    17    2
    27    16     8   am
    28     6     1   ar
    29    15    11    1
    30    27    22    1
@<TRIPOS>MOLECULE
*****
 27 30 0 0 0
SMALL
GASTEIGER

@<TRIPOS>ATOM
      1 C          63.0831   84.2283   14.7254 C.ar    1  UNL1        0.0153
      2 C          62.0479   84.4933   15.7780 C.ar    1  UNL1        0.0043
      3 C          62.1384   85.7281   16.6249 C.ar    1  UNL1        0.0369
      4 C          63.2641   86.6977   16.4190 C.ar    1  UNL1        0.1386
      5 C          64.2993   86.4327   15.3663 C.ar    1  UNL1        0.0369
      6 C          64.2088   85.1979   14.5195 C.ar    1  UNL1        0.0043
      7 C          61.9682   79.1763   14.2402 C.3     1  UNL1        0.1428
      8 N          62.4350   80.4675   13.6360 N.am    1  UNL1       -0.1793
      9 N          62.5256   81.7022   14.4827 N.2     1  UNL1       -0.1801
     10 C          62.9925   82.9934   13.8785 C.2     1  UNL1        0.0766
     11 C          63.3687   83.0497   12.4276 C.3     1  UNL1        0.0505
     12 C          63.8597   84.1711   11.5608 C.3     1  UNL1        0.0065
     13 C          64.0725   83.6294   10.1783 C.3     1  UNL1        0.0009
     14 C          63.7131   82.1731   10.1907 C.3     1  UNL1        0.0095
     15 C          63.2781   81.8148   11.5809 C.3     1  UNL1        0.0840
     16 C          62.8113   80.5237   12.1851 C.2     1  UNL1        0.2442
     17 O          62.7207   79.2889   11.3384 O.2     1  UNL1       -0.2731
     18 O          63.3547   87.9325   17.2658 O.3     1  UNL1       -0.4754
     19 C          63.1090   89.2804   16.6553 C.3     1  UNL1        0.2068
     20 C          63.6539   89.5979   15.2943 C.3     1  UNL1        0.0646
     21 C          64.2327   90.9534   15.0156 C.3     1  UNL1        0.0759
     22 N          64.4378   91.4047   13.5999 N.3     1  UNL1       -0.2726
     23 C          63.5525   90.8787   12.5093 C.3     1  UNL1        0.0721
     24 C          63.7577   91.3300   11.0936 C.3     1  UNL1        0.0174
     25 C          64.8482   92.3074   10.7685 C.3     1  UNL1        0.0029
     26 C          65.7335   92.8335   11.8591 C.3     1  UNL1        0.0174
     27 C          65.5283   92.3821   13.2749 C.3     1  UNL1        0.0721
@<TRIPOS>BOND
     1     7     8    1
     2     8     9    1
     3     9    10    2
     4    10     1    1
     5     1     2   ar
     6     2     3   ar
     7     3     4   ar
     8     4    18    1
     9    18    19    1
    10    19    20    1
    11    20    21    1
    12    21    22    1
    13    22    23    1
    14    23    24    1
    15    24    25    1
    16    25    26    1
    17    26    27    1
    18     4     5   ar
    19     5     6   ar
    20    10    11    1
    21    11    12    1
    22    12    13    1
    23    13    14    1
    24    14    15    1
    25    15    16    1
    26    16    17    2
    27    16     8   am
    28     6     1   ar
    29    15    11    1
    30    27    22    1
@<TRIPOS>MOLECULE
*****
 27 30 0 0 0
SMALL
GASTEIGER

@<TRIPOS>ATOM
      1 C          62.7524   86.2336   11.6044 C.ar    1  UNL1        0.0153
      2 C          63.0578   87.4815   12.3786 C.ar    1  UNL1        0.0043
      3 C          62.8061   88.8262   11.7635 C.ar    1  UNL1        0.0369
      4 C          62.2490   88.9229   10.3742 C.ar    1  UNL1        0.1386
      5 C          61.9436   87.6750    9.6000 C.ar    1  UNL1        0.0369
      6 C          62.1953   86.3303   10.2151 C.ar    1  UNL1        0.0043
      7 C          62.8851   81.0546   11.2022 C.3     1  UNL1        0.1428
      8 N          63.0705   82.2994   12.0185 N.am    1  UNL1       -0.1793
      9 N          62.8188   83.6440   11.4034 N.2     1  UNL1       -0.1801
     10 C          63.0041   84.8888   12.2196 C.2     1  UNL1        0.0766
     11 C          63.4412   84.7888   13.6510 C.3     1  UNL1        0.0505
     12 C          63.7052   85.8329   14.6951 C.3     1  UNL1        0.0065
     13 C          64.1201   85.1335   15.9555 C.3     1  UNL1        0.0009
     14 C          64.1125   83.6571   15.6904 C.3     1  UNL1        0.0095
     15 C          63.6929   83.4441   14.2661 C.3     1  UNL1        0.0840
     16 C          63.5076   82.1994   13.4498 C.2     1  UNL1        0.2442
     17 O          63.7593   80.8546   14.0650 O.2     1  UNL1       -0.2731
     18 O          61.9973   90.2677    9.7591 O.3     1  UNL1       -0.4754
     19 C          62.7265   91.4746   10.2703 C.3     1  UNL1        0.2068
     20 C          64.2172   91.4372   10.4331 C.3     1  UNL1        0.0646
     21 C          64.9361   92.6104   11.0304 C.3     1  UNL1        0.0759
     22 N          65.4134   92.5534   12.4513 N.3     1  UNL1       -0.2726
     23 C          66.3442   93.6079   12.9726 C.3     1  UNL1        0.0721
     24 C          66.8215   93.5509   14.3935 C.3     1  UNL1        0.0174
     25 C          66.3680   92.4395   15.2931 C.3     1  UNL1        0.0029
     26 C          65.4373   91.3850   14.7717 C.3     1  UNL1        0.0174
     27 C          64.9600   91.4420   13.3508 C.3     1  UNL1        0.0721
@<TRIPOS>BOND
     1     7     8    1
     2     8     9    1
     3     9    10    2
     4    10     1    1
     5     1     2   ar
     6     2     3   ar
     7     3     4   ar
     8     4    18    1
     9    18    19    1
    10    19    20    1
    11    20    21    1
    12    21    22    1
    13    22    23    1
    14    23    24    1
    15    24    25    1
    16    25    26    1
    17    26    27    1
    18     4     5   ar
    19     5     6   ar
    20    10    11    1
    21    11    12    1
    22    12    13    1
    23    13    14    1
    24    14    15    1
    25    15    16    1
    26    16    17    2
    27    16     8   am
    28     6     1   ar
    29    15    11    1
    30    27    22    1
