@<TRIPOS>MOLECULE
*****
 20 22 0 0 0
SMALL
GASTEIGER

@<TRIPOS>ATOM
      1 C          65.3963   92.3783   12.1024 C.3     1  UNL1        0.2082
      2 S          64.6879   92.0719   10.8161 S.3     1  UNL1       -0.0751
      3 C          63.4738   91.1911   10.8198 C.2     1  UNL1        0.0470
      4 C          62.9680   90.6166   12.1098 C.2     1  UNL1        0.0551
      5 C          61.7539   89.7358   12.1135 C.3     1  UNL1        0.0512
      6 N          63.6763   90.9229   13.3961 N.ar    1  UNL1       -0.2279
      7 C          64.8905   91.8037   13.3923 C.ar    1  UNL1        0.2066
      8 N          65.3769   91.9287   14.8058 N.ar    1  UNL1       -0.0545
      9 O          64.4634   91.1250   15.6830 O.2     1  UNL1       -0.2950
     10 C          63.4124   90.5034   14.8118 C.ar    1  UNL1        0.4470
     11 O          62.2938   89.6178   15.2750 O.2     1  UNL1       -0.2203
     12 C          66.2511   93.1526   11.1434 C.ar    1  UNL1        0.0189
     13 C          67.1997   92.4305   10.2329 C.ar    1  UNL1       -0.0007
     14 C          68.0545   93.2047    9.2739 C.ar    1  UNL1       -0.0002
     15 C          67.9610   94.7010    9.2252 C.ar    1  UNL1       -0.0000
     16 C          67.0124   95.4231   10.1357 C.ar    1  UNL1       -0.0002
     17 C          66.1575   94.6488   11.0948 C.ar    1  UNL1       -0.0007
     18 O          66.4015   92.9535   13.0555 O.3     1  UNL1       -0.3379
     19 C          68.4968   92.6101   14.5528 C.3     1  UNL1        0.0347
     20 C          67.6351   92.1749   13.4047 C.3     1  UNL1        0.1440
@<TRIPOS>BOND
     1    19    20    1
     2    20    18    1
     3    18     1    1
     4     1    12    1
     5    12    13   ar
     6    13    14   ar
     7    14    15   ar
     8    15    16   ar
     9    16    17   ar
    10     1     2    1
    11     2     3    1
    12     3     4    2
    13     4     5    1
    14     4     6    1
    15     6     7   ar
    16     7     8   ar
    17     8     9   ar
    18     9    10   ar
    19    10    11    2
    20     7     1    1
    21    17    12   ar
    22    10     6   ar
@<TRIPOS>MOLECULE
*****
 20 22 0 0 0
SMALL
GASTEIGER

@<TRIPOS>ATOM
      1 C          65.6682   92.2722   12.5158 C.3     1  UNL1        0.2082
      2 S          66.4956   93.2514   13.2948 S.3     1  UNL1       -0.0751
      3 C          66.3955   93.2948   14.7907 C.2     1  UNL1        0.0470
      4 C          65.4680   92.3592   15.5079 C.2     1  UNL1        0.0551
      5 C          65.3679   92.4027   17.0039 C.3     1  UNL1        0.0512
      6 N          64.6406   91.3801   14.7290 N.ar    1  UNL1       -0.2279
      7 C          64.7407   91.3366   13.2330 C.ar    1  UNL1        0.2066
      8 N          63.8080   90.2718   12.7367 N.ar    1  UNL1       -0.0545
      9 O          63.1315   89.6571   13.9260 O.2     1  UNL1       -0.2950
     10 C          63.6460   90.3421   15.1573 C.ar    1  UNL1        0.4470
     11 O          63.2377   90.0418   16.5691 O.2     1  UNL1       -0.2203
     12 C          66.3962   92.9496   11.3928 C.ar    1  UNL1        0.0189
     13 C          66.1564   94.4035   11.1126 C.ar    1  UNL1       -0.0007
     14 C          66.8843   95.0810    9.9896 C.ar    1  UNL1       -0.0002
     15 C          67.8521   94.3044    9.1467 C.ar    1  UNL1       -0.0000
     16 C          68.0920   92.8505    9.4270 C.ar    1  UNL1       -0.0002
     17 C          67.3640   92.1730   10.5500 C.ar    1  UNL1       -0.0007
     18 O          65.0936   91.5283   11.3469 O.3     1  UNL1       -0.3379
     19 C          62.9630   91.2351    9.8893 C.3     1  UNL1        0.0347
     20 C          63.9675   92.1268   10.5572 C.3     1  UNL1        0.1440
@<TRIPOS>BOND
     1    19    20    1
     2    20    18    1
     3    18     1    1
     4     1    12    1
     5    12    13   ar
     6    13    14   ar
     7    14    15   ar
     8    15    16   ar
     9    16    17   ar
    10     1     2    1
    11     2     3    1
    12     3     4    2
    13     4     5    1
    14     4     6    1
    15     6     7   ar
    16     7     8   ar
    17     8     9   ar
    18     9    10   ar
    19    10    11    2
    20     7     1    1
    21    17    12   ar
    22    10     6   ar
@<TRIPOS>MOLECULE
*****
 20 22 0 0 0
SMALL
GASTEIGER

@<TRIPOS>ATOM
      1 C          62.8694   85.2654   12.4884 C.3     1  UNL1        0.2082
      2 S          62.1588   84.9499   11.2056 S.3     1  UNL1       -0.0751
      3 C          61.7798   86.0563   10.2664 C.2     1  UNL1        0.0470
      4 C          62.1115   87.4782   10.6099 C.2     1  UNL1        0.0551
      5 C          61.7326   88.5847    9.6706 C.3     1  UNL1        0.0512
      6 N          62.8221   87.7938   11.8926 N.ar    1  UNL1       -0.2279
      7 C          63.2011   86.6874   12.8319 C.ar    1  UNL1        0.2066
      8 N          63.8905   87.2995   14.0151 N.ar    1  UNL1       -0.0545
      9 O          63.9376   88.7842   13.8071 O.2     1  UNL1       -0.2950
     10 C          63.2774   89.0897   12.4953 C.ar    1  UNL1        0.4470
     11 O          63.1029   90.4520   11.8922 O.2     1  UNL1       -0.2203
     12 C          62.7729   83.7730   12.6043 C.ar    1  UNL1        0.0189
     13 C          62.2446   83.1512   13.8630 C.ar    1  UNL1       -0.0007
     14 C          62.1480   81.6588   13.9790 C.ar    1  UNL1       -0.0002
     15 C          62.5796   80.7882   12.8363 C.ar    1  UNL1       -0.0000
     16 C          63.1079   81.4100   11.5776 C.ar    1  UNL1       -0.0002
     17 C          63.2045   82.9025   11.4616 C.ar    1  UNL1       -0.0007
     18 O          63.5465   85.0626   13.8114 O.3     1  UNL1       -0.3379
     19 C          65.9814   84.9392   14.7093 C.3     1  UNL1        0.0347
     20 C          64.8735   84.3664   13.8759 C.3     1  UNL1        0.1440
@<TRIPOS>BOND
     1    19    20    1
     2    20    18    1
     3    18     1    1
     4     1    12    1
     5    12    13   ar
     6    13    14   ar
     7    14    15   ar
     8    15    16   ar
     9    16    17   ar
    10     1     2    1
    11     2     3    1
    12     3     4    2
    13     4     5    1
    14     4     6    1
    15     6     7   ar
    16     7     8   ar
    17     8     9   ar
    18     9    10   ar
    19    10    11    2
    20     7     1    1
    21    17    12   ar
    22    10     6   ar
@<TRIPOS>MOLECULE
*****
 20 22 0 0 0
SMALL
GASTEIGER

@<TRIPOS>ATOM
      1 C          62.1445   86.5995   11.1919 C.3     1  UNL1        0.2082
      2 S          62.0708   85.1432   10.8399 S.3     1  UNL1       -0.0751
      3 C          62.7957   84.1316   11.6770 C.2     1  UNL1        0.0470
      4 C          63.5945   84.5761   12.8662 C.2     1  UNL1        0.0551
      5 C          64.3195   83.5644   13.7034 C.3     1  UNL1        0.0512
      6 N          63.6683   86.0323   13.2183 N.ar    1  UNL1       -0.2279
      7 C          62.9433   87.0440   12.3812 C.ar    1  UNL1        0.2066
      8 N          63.1984   88.4003   12.9688 N.ar    1  UNL1       -0.0545
      9 O          64.0811   88.2269   14.1691 O.2     1  UNL1       -0.2950
     10 C          64.3715   86.7633   14.3234 C.ar    1  UNL1        0.4470
     11 O          65.2167   86.1403   15.3945 O.2     1  UNL1       -0.2203
     12 C          61.2653   86.6690    9.9786 C.ar    1  UNL1        0.0189
     13 C          61.6308   85.9017    8.7426 C.ar    1  UNL1       -0.0007
     14 C          60.7517   85.9711    7.5293 C.ar    1  UNL1       -0.0002
     15 C          59.5070   86.8080    7.5518 C.ar    1  UNL1       -0.0000
     16 C          59.1415   87.5753    8.7878 C.ar    1  UNL1       -0.0002
     17 C          60.0207   87.5058   10.0012 C.ar    1  UNL1       -0.0007
     18 O          61.9130   88.0798   11.1226 O.3     1  UNL1       -0.3379
     19 C          62.5196   90.3992   10.1213 C.3     1  UNL1        0.0347
     20 C          62.6273   88.9033   10.0923 C.3     1  UNL1        0.1440
@<TRIPOS>BOND
     1    19    20    1
     2    20    18    1
     3    18     1    1
     4     1    12    1
     5    12    13   ar
     6    13    14   ar
     7    14    15   ar
     8    15    16   ar
     9    16    17   ar
    10     1     2    1
    11     2     3    1
    12     3     4    2
    13     4     5    1
    14     4     6    1
    15     6     7   ar
    16     7     8   ar
    17     8     9   ar
    18     9    10   ar
    19    10    11    2
    20     7     1    1
    21    17    12   ar
    22    10     6   ar
@<TRIPOS>MOLECULE
*****
 20 22 0 0 0
SMALL
GASTEIGER

@<TRIPOS>ATOM
      1 C          63.4593   90.4947   12.1396 C.3     1  UNL1        0.2082
      2 S          63.3660   91.1154   10.7771 S.3     1  UNL1       -0.0751
      3 C          64.2843   92.2401   10.4009 C.2     1  UNL1        0.0470
      4 C          65.2959   92.7443   11.3870 C.2     1  UNL1        0.0551
      5 C          66.2142   93.8691   11.0108 C.3     1  UNL1        0.0512
      6 N          65.3892   92.1236   12.7494 N.ar    1  UNL1       -0.2279
      7 C          64.4709   90.9989   13.1257 C.ar    1  UNL1        0.2066
      8 N          64.7938   90.5873   14.5315 N.ar    1  UNL1       -0.0545
      9 O          65.9116   91.4577   15.0241 O.2     1  UNL1       -0.2950
     10 C          66.2797   92.4072   13.9227 C.ar    1  UNL1        0.4470
     11 O          67.3502   93.4562   13.9840 O.2     1  UNL1       -0.2203
     12 C          62.3458   89.6764   11.5561 C.ar    1  UNL1        0.0189
     13 C          60.9774   89.7270   12.1686 C.ar    1  UNL1       -0.0007
     14 C          59.8638   88.9087   11.5853 C.ar    1  UNL1       -0.0002
     15 C          60.1186   88.0397   10.3894 C.ar    1  UNL1       -0.0000
     16 C          61.4869   87.9892    9.7769 C.ar    1  UNL1       -0.0002
     17 C          62.6005   88.8075   10.3603 C.ar    1  UNL1       -0.0007
     18 O          63.1658   89.5899   13.2993 O.3     1  UNL1       -0.3379
     19 C          64.2367   87.5912   14.5676 C.3     1  UNL1        0.0347
     20 C          63.6869   88.1833   13.3038 C.3     1  UNL1        0.1440
@<TRIPOS>BOND
     1    19    20    1
     2    20    18    1
     3    18     1    1
     4     1    12    1
     5    12    13   ar
     6    13    14   ar
     7    14    15   ar
     8    15    16   ar
     9    16    17   ar
    10     1     2    1
    11     2     3    1
    12     3     4    2
    13     4     5    1
    14     4     6    1
    15     6     7   ar
    16     7     8   ar
    17     8     9   ar
    18     9    10   ar
    19    10    11    2
    20     7     1    1
    21    17    12   ar
    22    10     6   ar
@<TRIPOS>MOLECULE
*****
 20 22 0 0 0
SMALL
GASTEIGER

@<TRIPOS>ATOM
      1 C          64.4916   90.4942   13.8314 C.3     1  UNL1        0.2082
      2 S          65.1692   90.9196   15.1004 S.3     1  UNL1       -0.0751
      3 C          65.9604   92.1933   15.1375 C.2     1  UNL1        0.0470
      4 C          66.0743   93.0417   13.9058 C.2     1  UNL1        0.0551
      5 C          66.8656   94.3155   13.9430 C.3     1  UNL1        0.0512
      6 N          65.3968   92.6164   12.6369 N.ar    1  UNL1       -0.2279
      7 C          64.6055   91.3427   12.5997 C.ar    1  UNL1        0.2066
      8 N          64.0515   91.1814   11.2151 N.ar    1  UNL1       -0.0545
      9 O          64.5004   92.3554   10.3966 O.2     1  UNL1       -0.2950
     10 C          65.3319   93.2424   11.2753 C.ar    1  UNL1        0.4470
     11 O          65.9839   94.5292   10.8644 O.2     1  UNL1       -0.2203
     12 C          64.0947   89.3615   14.7310 C.ar    1  UNL1        0.0189
     13 C          64.4182   87.9486   14.3452 C.ar    1  UNL1       -0.0007
     14 C          64.0213   86.8158   15.2447 C.ar    1  UNL1       -0.0002
     15 C          63.3007   87.0959   16.5302 C.ar    1  UNL1       -0.0000
     16 C          62.9772   88.5089   16.9160 C.ar    1  UNL1       -0.0002
     17 C          63.3742   89.6417   16.0165 C.ar    1  UNL1       -0.0007
     18 O          63.6763   89.6756   12.8749 O.3     1  UNL1       -0.3379
     19 C          61.4070   89.1849   11.7091 C.3     1  UNL1        0.0347
     20 C          62.2007   89.9151   12.7515 C.3     1  UNL1        0.1440
@<TRIPOS>BOND
     1    19    20    1
     2    20    18    1
     3    18     1    1
     4     1    12    1
     5    12    13   ar
     6    13    14   ar
     7    14    15   ar
     8    15    16   ar
     9    16    17   ar
    10     1     2    1
    11     2     3    1
    12     3     4    2
    13     4     5    1
    14     4     6    1
    15     6     7   ar
    16     7     8   ar
    17     8     9   ar
    18     9    10   ar
    19    10    11    2
    20     7     1    1
    21    17    12   ar
    22    10     6   ar
@<TRIPOS>MOLECULE
*****
 20 22 0 0 0
SMALL
GASTEIGER

@<TRIPOS>ATOM
      1 C          62.4436   89.9318   11.5491 C.3     1  UNL1        0.2082
      2 S          63.0954   90.5773   10.3623 S.3     1  UNL1       -0.0751
      3 C          64.1994   91.5728   10.5621 C.2     1  UNL1        0.0470
      4 C          64.6517   91.9230   11.9487 C.2     1  UNL1        0.0551
      5 C          65.7557   92.9185   12.1485 C.3     1  UNL1        0.0512
      6 N          63.9999   91.2775   13.1356 N.ar    1  UNL1       -0.2279
      7 C          62.8959   90.2820   12.9358 C.ar    1  UNL1        0.2066
      8 N          62.4451   89.8122   14.2871 N.ar    1  UNL1       -0.0545
      9 O          63.2706   90.5174   15.3221 O.2     1  UNL1       -0.2950
     10 C          64.2315   91.4230   14.6104 C.ar    1  UNL1        0.4470
     11 O          65.2460   92.3172   15.2596 O.2     1  UNL1       -0.2203
     12 C          61.6719   89.2788   10.4409 C.ar    1  UNL1        0.0189
     13 C          60.7411   90.0945    9.5933 C.ar    1  UNL1       -0.0007
     14 C          59.9694   89.4416    8.4851 C.ar    1  UNL1       -0.0002
     15 C          60.1284   87.9729    8.2244 C.ar    1  UNL1       -0.0000
     16 C          61.0592   87.1573    9.0721 C.ar    1  UNL1       -0.0002
     17 C          61.8309   87.8102   10.1803 C.ar    1  UNL1       -0.0007
     18 O          61.5238   89.0596   12.3511 O.3     1  UNL1       -0.3379
     19 C          58.9490   88.7308   12.4619 C.3     1  UNL1        0.0347
     20 C          60.1657   89.5619   12.7427 C.3     1  UNL1        0.1440
@<TRIPOS>BOND
     1    19    20    1
     2    20    18    1
     3    18     1    1
     4     1    12    1
     5    12    13   ar
     6    13    14   ar
     7    14    15   ar
     8    15    16   ar
     9    16    17   ar
    10     1     2    1
    11     2     3    1
    12     3     4    2
    13     4     5    1
    14     4     6    1
    15     6     7   ar
    16     7     8   ar
    17     8     9   ar
    18     9    10   ar
    19    10    11    2
    20     7     1    1
    21    17    12   ar
    22    10     6   ar
@<TRIPOS>MOLECULE
*****
 20 22 0 0 0
SMALL
GASTEIGER

@<TRIPOS>ATOM
      1 C          62.2319   87.7594   10.9774 C.3     1  UNL1        0.2082
      2 S          62.1451   88.9624   10.0855 S.3     1  UNL1       -0.0751
      3 C          62.7842   90.2535   10.5033 C.2     1  UNL1        0.0470
      4 C          63.5101   90.3417   11.8129 C.2     1  UNL1        0.0551
      5 C          64.1493   91.6329   12.2306 C.3     1  UNL1        0.0512
      6 N          63.5970   89.1388   12.7048 N.ar    1  UNL1       -0.2279
      7 C          62.9579   87.8477   12.2870 C.ar    1  UNL1        0.2066
      8 N          63.2067   86.8366   13.3668 N.ar    1  UNL1       -0.0545
      9 O          63.9996   87.5029   14.4518 O.2     1  UNL1       -0.2950
     10 C          64.2408   88.9257   14.0427 C.ar    1  UNL1        0.4470
     11 O          64.9937   89.9548   14.8328 O.2     1  UNL1       -0.2203
     12 C          61.4407   87.1841    9.8404 C.ar    1  UNL1        0.0189
     13 C          62.1217   86.3398    8.8043 C.ar    1  UNL1       -0.0007
     14 C          61.3306   85.7645    7.6672 C.ar    1  UNL1       -0.0002
     15 C          59.8583   86.0334    7.5661 C.ar    1  UNL1       -0.0000
     16 C          59.1773   86.8777    8.6022 C.ar    1  UNL1       -0.0002
     17 C          59.9685   87.4531    9.7393 C.ar    1  UNL1       -0.0007
     18 O          62.0440   86.3568   11.4744 O.3     1  UNL1       -0.3379
     19 C          62.7867   83.8675   11.5186 C.3     1  UNL1        0.0347
     20 C          62.9470   85.2618   10.9891 C.3     1  UNL1        0.1440
@<TRIPOS>BOND
     1    19    20    1
     2    20    18    1
     3    18     1    1
     4     1    12    1
     5    12    13   ar
     6    13    14   ar
     7    14    15   ar
     8    15    16   ar
     9    16    17   ar
    10     1     2    1
    11     2     3    1
    12     3     4    2
    13     4     5    1
    14     4     6    1
    15     6     7   ar
    16     7     8   ar
    17     8     9   ar
    18     9    10   ar
    19    10    11    2
    20     7     1    1
    21    17    12   ar
    22    10     6   ar
@<TRIPOS>MOLECULE
*****
 20 22 0 0 0
SMALL
GASTEIGER

@<TRIPOS>ATOM
      1 C          62.5184   88.6248   11.2527 C.3     1  UNL1        0.2082
      2 S          62.4880   89.6217   10.1322 S.3     1  UNL1       -0.0751
      3 C          63.2246   90.9215   10.2645 C.2     1  UNL1        0.0470
      4 C          63.9917   91.2247   11.5174 C.2     1  UNL1        0.0551
      5 C          64.7283   92.5247   11.6497 C.3     1  UNL1        0.0512
      6 N          64.0222   90.2279   12.6378 N.ar    1  UNL1       -0.2279
      7 C          63.2856   88.9280   12.5055 C.ar    1  UNL1        0.2066
      8 N          63.4959   88.1454   13.7677 N.ar    1  UNL1       -0.0545
      9 O          64.3625   88.9617   14.6802 O.2     1  UNL1       -0.2950
     10 C          64.6878   90.2488   13.9819 C.ar    1  UNL1        0.4470
     11 O          65.5306   91.3613   14.5313 O.2     1  UNL1       -0.2203
     12 C          61.6582   87.8865   10.2705 C.ar    1  UNL1        0.0189
     13 C          60.1677   88.0512   10.3067 C.ar    1  UNL1       -0.0007
     14 C          59.3073   87.3130    9.3246 C.ar    1  UNL1       -0.0002
     15 C          59.9374   86.4098    8.3060 C.ar    1  UNL1       -0.0000
     16 C          61.4279   86.2451    8.2697 C.ar    1  UNL1       -0.0002
     17 C          62.2883   86.9834    9.2519 C.ar    1  UNL1       -0.0007
     18 O          62.2502   87.3716   12.0320 O.3     1  UNL1       -0.3379
     19 C          62.6219   84.8259   12.3942 C.3     1  UNL1        0.0347
     20 C          62.9388   86.0930   11.6566 C.3     1  UNL1        0.1440
@<TRIPOS>BOND
     1    19    20    1
     2    20    18    1
     3    18     1    1
     4     1    12    1
     5    12    13   ar
     6    13    14   ar
     7    14    15   ar
     8    15    16   ar
     9    16    17   ar
    10     1     2    1
    11     2     3    1
    12     3     4    2
    13     4     5    1
    14     4     6    1
    15     6     7   ar
    16     7     8   ar
    17     8     9   ar
    18     9    10   ar
    19    10    11    2
    20     7     1    1
    21    17    12   ar
    22    10     6   ar
