@<TRIPOS>MOLECULE
*****
 23 25 0 0 0
SMALL
GASTEIGER

@<TRIPOS>ATOM
      1 N          66.0587   93.2034   13.0528 N.ar    1  UNL1       -0.3165
      2 C          66.9211   93.2245   14.2799 C.ar    1  UNL1        0.0779
      3 C          66.6338   91.9820   15.0697 C.ar    1  UNL1        0.0392
      4 C          65.5940   91.1930   14.3306 C.ar    1  UNL1        0.0985
      5 N          64.9248   89.8848   14.6316 N.ar    1  UNL1       -0.2423
      6 C          63.9003   89.3314   13.6861 C.ar    1  UNL1        0.0989
      7 C          63.5448   90.0863   12.4396 C.ar    1  UNL1        0.0206
      8 C          64.2140   91.3945   12.1386 C.ar    1  UNL1        0.0203
      9 C          65.2385   91.9479   13.0841 C.ar    1  UNL1        0.0782
     10 C          62.5202   89.5328   11.4941 C.ar    1  UNL1        0.0025
     11 C          61.6091   90.4618   10.7479 C.ar    1  UNL1        0.0024
     12 C          60.5845   89.9083    9.8023 C.ar    1  UNL1        0.0305
     13 C          60.4710   88.4259    9.6031 C.ar    1  UNL1        0.1506
     14 F          59.4465   87.8725    8.6577 F       1  UNL1       -0.2033
     15 C          61.3822   87.4970   10.3494 C.ar    1  UNL1        0.0850
     16 CL         61.2688   86.0146   10.1502 Cl      1  UNL1       -0.0799
     17 C          62.4068   88.0505   11.2949 C.ar    1  UNL1        0.0137
     18 C          66.0229   94.2535   11.9822 C.3     1  UNL1        0.1920
     19 C          67.4390   94.8529    8.3236 C.3     1  UNL1        0.1150
     20 N          66.6754   95.0555    9.5987 N.am    1  UNL1       -0.2744
     21 C          65.8007   96.2626    9.7654 C.3     1  UNL1        0.1150
     22 C          66.7865   94.0510   10.7071 C.2     1  UNL1        0.2488
     23 O          67.6612   92.8439   10.5403 O.2     1  UNL1       -0.2728
@<TRIPOS>BOND
     1    19    20    1
     2    20    21    1
     3    20    22   am
     4    22    23    2
     5    22    18    1
     6    18     1    1
     7     1     2   ar
     8     2     3   ar
     9     3     4   ar
    10     4     5   ar
    11     5     6   ar
    12     6     7   ar
    13     7    10    1
    14    10    11   ar
    15    11    12   ar
    16    12    13   ar
    17    13    14    1
    18    13    15   ar
    19    15    16    1
    20    15    17   ar
    21     7     8   ar
    22     8     9   ar
    23     9     1   ar
    24     9     4   ar
    25    17    10   ar
@<TRIPOS>MOLECULE
*****
 23 25 0 0 0
SMALL
GASTEIGER

@<TRIPOS>ATOM
      1 N          63.8299   86.0266   15.6346 N.ar    1  UNL1       -0.3165
      2 C          63.0380   85.6256   16.8437 C.ar    1  UNL1        0.0779
      3 C          62.5856   86.8764   17.5372 C.ar    1  UNL1        0.0392
      4 C          63.0979   88.0504   16.7566 C.ar    1  UNL1        0.0985
      5 N          62.9634   89.5297   16.9647 N.ar    1  UNL1       -0.2423
      6 C          63.5979   90.4839   15.9968 C.ar    1  UNL1        0.0989
      7 C          64.3670   89.9587   14.8209 C.ar    1  UNL1        0.0206
      8 C          64.5014   88.4794   14.6128 C.ar    1  UNL1        0.0203
      9 C          63.8669   87.5252   15.5807 C.ar    1  UNL1        0.0782
     10 C          65.0015   90.9130   13.8530 C.ar    1  UNL1        0.0025
     11 C          66.2927   91.5904   14.2050 C.ar    1  UNL1        0.0024
     12 C          66.9273   92.5447   13.2371 C.ar    1  UNL1        0.0305
     13 C          66.2706   92.8215   11.9172 C.ar    1  UNL1        0.1506
     14 F          66.9051   93.7757   10.9493 F       1  UNL1       -0.2033
     15 C          64.9793   92.1441   11.5652 C.ar    1  UNL1        0.0850
     16 CL         64.3227   92.4209   10.2453 Cl      1  UNL1       -0.0799
     17 C          64.3448   91.1899   12.5331 C.ar    1  UNL1        0.0137
     18 C          64.4720   85.0930   14.6517 C.3     1  UNL1        0.1920
     19 C          62.4131   82.2540   12.7939 C.3     1  UNL1        0.1150
     20 N          63.0468   83.5804   13.0925 N.am    1  UNL1       -0.2744
     21 C          62.8889   84.7205   12.1308 C.3     1  UNL1        0.1150
     22 C          63.8383   83.7665   14.3530 C.2     1  UNL1        0.2488
     23 O          63.9962   82.6263   15.3148 O.2     1  UNL1       -0.2728
@<TRIPOS>BOND
     1    19    20    1
     2    20    21    1
     3    20    22   am
     4    22    23    2
     5    22    18    1
     6    18     1    1
     7     1     2   ar
     8     2     3   ar
     9     3     4   ar
    10     4     5   ar
    11     5     6   ar
    12     6     7   ar
    13     7    10    1
    14    10    11   ar
    15    11    12   ar
    16    12    13   ar
    17    13    14    1
    18    13    15   ar
    19    15    16    1
    20    15    17   ar
    21     7     8   ar
    22     8     9   ar
    23     9     1   ar
    24     9     4   ar
    25    17    10   ar
@<TRIPOS>MOLECULE
*****
 23 25 0 0 0
SMALL
GASTEIGER

@<TRIPOS>ATOM
      1 N          61.5822   86.3895    9.6062 N.ar    1  UNL1       -0.3165
      2 C          60.3501   86.3583    8.7513 C.ar    1  UNL1        0.0779
      3 C          59.7275   87.7225    8.7858 C.ar    1  UNL1        0.0392
      4 C          60.5748   88.5968    9.6619 C.ar    1  UNL1        0.0985
      5 N          60.4506   90.0367   10.0635 N.ar    1  UNL1       -0.2423
      6 C          61.4728   90.6527   10.9722 C.ar    1  UNL1        0.0989
      7 C          62.6192   89.8288   11.4792 C.ar    1  UNL1        0.0206
      8 C          62.7433   88.3889   11.0776 C.ar    1  UNL1        0.0203
      9 C          61.7211   87.7729   10.1690 C.ar    1  UNL1        0.0782
     10 C          63.6414   90.4448   12.3879 C.ar    1  UNL1        0.0025
     11 C          63.9471   89.8103   13.7122 C.ar    1  UNL1        0.0024
     12 C          64.9693   90.4263   14.6209 C.ar    1  UNL1        0.0305
     13 C          65.6857   91.6769   14.2052 C.ar    1  UNL1        0.1506
     14 F          66.7079   92.2930   15.1138 F       1  UNL1       -0.2033
     15 C          65.3799   92.3115   12.8808 C.ar    1  UNL1        0.0850
     16 CL         66.0963   93.5621   12.4652 Cl      1  UNL1       -0.0799
     17 C          64.3578   91.6954   11.9722 C.ar    1  UNL1        0.0137
     18 C          62.5123   85.2391    9.8547 C.3     1  UNL1        0.1920
     19 C          63.7343   82.9683   12.8713 C.3     1  UNL1        0.1150
     20 N          63.5668   83.5108   11.4830 N.am    1  UNL1       -0.2744
     21 C          64.2861   82.8677   10.3345 C.3     1  UNL1        0.1150
     22 C          62.6798   84.6965   11.2431 C.2     1  UNL1        0.2488
     23 O          61.9605   85.3396   12.3916 O.2     1  UNL1       -0.2728
@<TRIPOS>BOND
     1    19    20    1
     2    20    21    1
     3    20    22   am
     4    22    23    2
     5    22    18    1
     6    18     1    1
     7     1     2   ar
     8     2     3   ar
     9     3     4   ar
    10     4     5   ar
    11     5     6   ar
    12     6     7   ar
    13     7    10    1
    14    10    11   ar
    15    11    12   ar
    16    12    13   ar
    17    13    14    1
    18    13    15   ar
    19    15    16    1
    20    15    17   ar
    21     7     8   ar
    22     8     9   ar
    23     9     1   ar
    24     9     4   ar
    25    17    10   ar
@<TRIPOS>MOLECULE
*****
 23 25 0 0 0
SMALL
GASTEIGER

@<TRIPOS>ATOM
      1 N          64.3139   89.3738   14.1285 N.ar    1  UNL1       -0.3165
      2 C          64.8278   90.7192   14.5477 C.ar    1  UNL1        0.0779
      3 C          64.4911   91.7017   13.4655 C.ar    1  UNL1        0.0392
      4 C          63.7691   90.9635   12.3774 C.ar    1  UNL1        0.0985
      5 N          63.1973   91.4156   11.0665 N.ar    1  UNL1       -0.2423
      6 C          62.5159   90.4289   10.1653 C.ar    1  UNL1        0.0989
      7 C          62.4065   88.9901   10.5751 C.ar    1  UNL1        0.0206
      8 C          62.9783   88.5380   11.8861 C.ar    1  UNL1        0.0203
      9 C          63.6596   89.5248   12.7872 C.ar    1  UNL1        0.0782
     10 C          61.7251   88.0033    9.6739 C.ar    1  UNL1        0.0025
     11 C          60.2598   88.1398    9.3839 C.ar    1  UNL1        0.0024
     12 C          59.5784   87.1531    8.4827 C.ar    1  UNL1        0.0305
     13 C          60.3625   86.0298    7.8715 C.ar    1  UNL1        0.1506
     14 F          59.6812   85.0431    6.9703 F       1  UNL1       -0.2033
     15 C          61.8279   85.8933    8.1615 C.ar    1  UNL1        0.0850
     16 CL         62.6119   84.7701    7.5503 Cl      1  UNL1       -0.0799
     17 C          62.5092   86.8801    9.0627 C.ar    1  UNL1        0.0137
     18 C          64.4334   88.1008   14.9129 C.3     1  UNL1        0.1920
     19 C          62.4966   86.3326   17.8915 C.3     1  UNL1        0.1150
     20 N          63.3088   86.5245   16.6452 N.am    1  UNL1       -0.2744
     21 C          63.8088   85.3321   15.8847 C.3     1  UNL1        0.1150
     22 C          63.6211   87.9088   16.1593 C.2     1  UNL1        0.2488
     23 O          63.1211   89.1012   16.9198 O.2     1  UNL1       -0.2728
@<TRIPOS>BOND
     1    19    20    1
     2    20    21    1
     3    20    22   am
     4    22    23    2
     5    22    18    1
     6    18     1    1
     7     1     2   ar
     8     2     3   ar
     9     3     4   ar
    10     4     5   ar
    11     5     6   ar
    12     6     7   ar
    13     7    10    1
    14    10    11   ar
    15    11    12   ar
    16    12    13   ar
    17    13    14    1
    18    13    15   ar
    19    15    16    1
    20    15    17   ar
    21     7     8   ar
    22     8     9   ar
    23     9     1   ar
    24     9     4   ar
    25    17    10   ar
@<TRIPOS>MOLECULE
*****
 23 25 0 0 0
SMALL
GASTEIGER

@<TRIPOS>ATOM
      1 N          63.1173   89.2212   11.8495 N.ar    1  UNL1       -0.3165
      2 C          63.5372   90.3642   12.7253 C.ar    1  UNL1        0.0779
      3 C          64.0498   89.7957   14.0153 C.ar    1  UNL1        0.0392
      4 C          63.9469   88.3013   13.9366 C.ar    1  UNL1        0.0985
      5 N          64.3034   87.2180   14.9110 N.ar    1  UNL1       -0.2423
      6 C          64.0836   85.7797   14.5467 C.ar    1  UNL1        0.0989
      7 C          63.5073   85.4246   13.2081 C.ar    1  UNL1        0.0206
      8 C          63.1508   86.5078   12.2338 C.ar    1  UNL1        0.0203
      9 C          63.3705   87.9462   12.5981 C.ar    1  UNL1        0.0782
     10 C          63.2875   83.9861   12.8439 C.ar    1  UNL1        0.0025
     11 C          63.9765   83.4019   11.6464 C.ar    1  UNL1        0.0024
     12 C          63.7567   81.9635   11.2822 C.ar    1  UNL1        0.0305
     13 C          62.8480   81.1092   12.1155 C.ar    1  UNL1        0.1506
     14 F          62.6282   79.6708   11.7513 F       1  UNL1       -0.2033
     15 C          62.1590   81.6934   13.3131 C.ar    1  UNL1        0.0850
     16 CL         61.2502   80.8392   14.1464 Cl      1  UNL1       -0.0799
     17 C          62.3788   83.1318   13.6772 C.ar    1  UNL1        0.0137
     18 C          62.5448   89.3333   10.4676 C.3     1  UNL1        0.1920
     19 C          59.5298   87.1195    9.1413 C.3     1  UNL1        0.1150
     20 N          60.9258   87.5948    9.4156 N.am    1  UNL1       -0.2744
     21 C          62.0988   86.8070    8.9122 C.3     1  UNL1        0.1150
     22 C          61.1487   88.8579   10.1932 C.2     1  UNL1        0.2488
     23 O          59.9757   89.6457   10.6966 O.2     1  UNL1       -0.2728
@<TRIPOS>BOND
     1    19    20    1
     2    20    21    1
     3    20    22   am
     4    22    23    2
     5    22    18    1
     6    18     1    1
     7     1     2   ar
     8     2     3   ar
     9     3     4   ar
    10     4     5   ar
    11     5     6   ar
    12     6     7   ar
    13     7    10    1
    14    10    11   ar
    15    11    12   ar
    16    12    13   ar
    17    13    14    1
    18    13    15   ar
    19    15    16    1
    20    15    17   ar
    21     7     8   ar
    22     8     9   ar
    23     9     1   ar
    24     9     4   ar
    25    17    10   ar
@<TRIPOS>MOLECULE
*****
 23 25 0 0 0
SMALL
GASTEIGER

@<TRIPOS>ATOM
      1 N          62.4327   86.2498   11.7960 N.ar    1  UNL1       -0.3165
      2 C          61.3468   85.8678   10.8343 C.ar    1  UNL1        0.0779
      3 C          60.8515   87.1199   10.1733 C.ar    1  UNL1        0.0392
      4 C          61.6311   88.2758   10.7266 C.ar    1  UNL1        0.0985
      5 N          61.5775   89.7484   10.4468 N.ar    1  UNL1       -0.2423
      6 C          62.5010   90.6833   11.1699 C.ar    1  UNL1        0.0989
      7 C          63.4783   90.1456   12.1728 C.ar    1  UNL1        0.0206
      8 C          63.5320   88.6729   12.4526 C.ar    1  UNL1        0.0203
      9 C          62.6084   87.7380   11.7295 C.ar    1  UNL1        0.0782
     10 C          64.4019   91.0806   12.8959 C.ar    1  UNL1        0.0025
     11 C          64.7851   90.8043   14.3195 C.ar    1  UNL1        0.0024
     12 C          65.7087   91.7393   15.0426 C.ar    1  UNL1        0.0305
     13 C          66.2491   92.9506   14.3420 C.ar    1  UNL1        0.1506
     14 F          67.1726   93.8856   15.0650 F       1  UNL1       -0.2033
     15 C          65.8658   93.2268   12.9183 C.ar    1  UNL1        0.0850
     16 CL         66.4062   94.4381   12.2176 Cl      1  UNL1       -0.0799
     17 C          64.9422   92.2919   12.1953 C.ar    1  UNL1        0.0137
     18 C          63.2069   85.3089   12.6708 C.3     1  UNL1        0.1920
     19 C          62.0134   81.8417   14.1889 C.3     1  UNL1        0.1150
     20 N          62.4193   83.2826   14.0935 N.am    1  UNL1       -0.2744
     21 C          62.4436   84.1381   15.3254 C.3     1  UNL1        0.1150
     22 C          62.8010   83.8679   12.7662 C.2     1  UNL1        0.2488
     23 O          62.7767   83.0124   11.5343 O.2     1  UNL1       -0.2728
@<TRIPOS>BOND
     1    19    20    1
     2    20    21    1
     3    20    22   am
     4    22    23    2
     5    22    18    1
     6    18     1    1
     7     1     2   ar
     8     2     3   ar
     9     3     4   ar
    10     4     5   ar
    11     5     6   ar
    12     6     7   ar
    13     7    10    1
    14    10    11   ar
    15    11    12   ar
    16    12    13   ar
    17    13    14    1
    18    13    15   ar
    19    15    16    1
    20    15    17   ar
    21     7     8   ar
    22     8     9   ar
    23     9     1   ar
    24     9     4   ar
    25    17    10   ar
@<TRIPOS>MOLECULE
*****
 23 25 0 0 0
SMALL
GASTEIGER

@<TRIPOS>ATOM
      1 N          63.1639   89.8135   11.9588 N.ar    1  UNL1       -0.3165
      2 C          62.4964   90.8016   11.0488 C.ar    1  UNL1        0.0779
      3 C          61.5761   90.0446   10.1379 C.ar    1  UNL1        0.0392
      4 C          61.6747   88.5886   10.4850 C.ar    1  UNL1        0.0985
      5 N          60.9978   87.3744    9.9216 N.ar    1  UNL1       -0.2423
      6 C          61.3022   86.0174   10.4837 C.ar    1  UNL1        0.0989
      7 C          62.2835   85.8747   11.6091 C.ar    1  UNL1        0.0206
      8 C          62.9605   87.0889   12.1724 C.ar    1  UNL1        0.0203
      9 C          62.6561   88.4458   11.6104 C.ar    1  UNL1        0.0782
     10 C          62.5879   84.5176   12.1711 C.ar    1  UNL1        0.0025
     11 C          62.7520   84.3384   13.6513 C.ar    1  UNL1        0.0024
     12 C          63.0564   82.9814   14.2133 C.ar    1  UNL1        0.0305
     13 C          63.1966   81.8035   13.2952 C.ar    1  UNL1        0.1506
     14 F          63.5010   80.4466   13.8571 F       1  UNL1       -0.2033
     15 C          63.0325   81.9828   11.8149 C.ar    1  UNL1        0.0850
     16 CL         63.1727   80.8050   10.8967 Cl      1  UNL1       -0.0799
     17 C          62.7281   83.3398   11.2530 C.ar    1  UNL1        0.0137
     18 C          64.1637   90.1365   13.0294 C.3     1  UNL1        0.1920
     19 C          64.0561   91.5955   16.7185 C.3     1  UNL1        0.1150
     20 N          64.5201   91.3063   15.3218 N.am    1  UNL1       -0.2744
     21 C          65.8042   91.8975   14.8204 C.3     1  UNL1        0.1150
     22 C          63.6998   90.4258   14.4263 C.2     1  UNL1        0.2488
     23 O          62.4157   89.8345   14.9277 O.2     1  UNL1       -0.2728
@<TRIPOS>BOND
     1    19    20    1
     2    20    21    1
     3    20    22   am
     4    22    23    2
     5    22    18    1
     6    18     1    1
     7     1     2   ar
     8     2     3   ar
     9     3     4   ar
    10     4     5   ar
    11     5     6   ar
    12     6     7   ar
    13     7    10    1
    14    10    11   ar
    15    11    12   ar
    16    12    13   ar
    17    13    14    1
    18    13    15   ar
    19    15    16    1
    20    15    17   ar
    21     7     8   ar
    22     8     9   ar
    23     9     1   ar
    24     9     4   ar
    25    17    10   ar
@<TRIPOS>MOLECULE
*****
 23 25 0 0 0
SMALL
GASTEIGER

@<TRIPOS>ATOM
      1 N          61.8120   86.3218    9.6529 N.ar    1  UNL1       -0.3165
      2 C          60.7037   86.2778    8.6431 C.ar    1  UNL1        0.0779
      3 C          60.0317   87.6188    8.6338 C.ar    1  UNL1        0.0392
      4 C          60.7246   88.4916    9.6379 C.ar    1  UNL1        0.0985
      5 N          60.4958   89.9126   10.0600 N.ar    1  UNL1       -0.2423
      6 C          61.3673   90.5320   11.1120 C.ar    1  UNL1        0.0989
      7 C          62.4676   89.7304   11.7419 C.ar    1  UNL1        0.0206
      8 C          62.6964   88.3094   11.3197 C.ar    1  UNL1        0.0203
      9 C          61.8249   87.6900   10.2677 C.ar    1  UNL1        0.0782
     10 C          63.3392   90.3499   12.7939 C.ar    1  UNL1        0.0025
     11 C          64.4929   91.2213   12.3944 C.ar    1  UNL1        0.0024
     12 C          65.3644   91.8408   13.4465 C.ar    1  UNL1        0.0305
     13 C          65.0822   91.5889   14.8980 C.ar    1  UNL1        0.1506
     14 F          65.9536   92.2083   15.9500 F       1  UNL1       -0.2033
     15 C          63.9284   90.7174   15.2974 C.ar    1  UNL1        0.0850
     16 CL         63.6462   90.4654   16.7489 Cl      1  UNL1       -0.0799
     17 C          63.0569   90.0980   14.2454 C.ar    1  UNL1        0.0137
     18 C          62.7438   85.1954    9.9890 C.3     1  UNL1        0.1920
     19 C          63.2984   82.5917   12.9324 C.3     1  UNL1        0.1150
     20 N          63.3529   83.2309   11.5765 N.am    1  UNL1       -0.2744
     21 C          64.0709   82.5450   10.4522 C.3     1  UNL1        0.1150
     22 C          62.6893   84.5561   11.3449 C.2     1  UNL1        0.2488
     23 O          61.9714   85.2420   12.4692 O.2     1  UNL1       -0.2728
@<TRIPOS>BOND
     1    19    20    1
     2    20    21    1
     3    20    22   am
     4    22    23    2
     5    22    18    1
     6    18     1    1
     7     1     2   ar
     8     2     3   ar
     9     3     4   ar
    10     4     5   ar
    11     5     6   ar
    12     6     7   ar
    13     7    10    1
    14    10    11   ar
    15    11    12   ar
    16    12    13   ar
    17    13    14    1
    18    13    15   ar
    19    15    16    1
    20    15    17   ar
    21     7     8   ar
    22     8     9   ar
    23     9     1   ar
    24     9     4   ar
    25    17    10   ar
@<TRIPOS>MOLECULE
*****
 23 25 0 0 0
SMALL
GASTEIGER

@<TRIPOS>ATOM
      1 N          62.1880   88.4891   10.9276 N.ar    1  UNL1       -0.3165
      2 C          62.6994   89.7995   11.4484 C.ar    1  UNL1        0.0779
      3 C          63.4887   89.5267   12.6944 C.ar    1  UNL1        0.0392
      4 C          63.4651   88.0478   12.9437 C.ar    1  UNL1        0.0985
      5 N          64.0718   87.2022   14.0239 N.ar    1  UNL1       -0.2423
      6 C          63.8746   85.7153   14.0122 C.ar    1  UNL1        0.0989
      7 C          63.0707   85.0740   12.9202 C.ar    1  UNL1        0.0206
      8 C          62.4640   85.9196   11.8400 C.ar    1  UNL1        0.0203
      9 C          62.6612   87.4064   11.8517 C.ar    1  UNL1        0.0782
     10 C          62.8734   83.5870   12.9085 C.ar    1  UNL1        0.0025
     11 C          62.4570   82.8758   14.1618 C.ar    1  UNL1        0.0024
     12 C          62.2598   81.3888   14.1501 C.ar    1  UNL1        0.0305
     13 C          62.4790   80.6131   12.8850 C.ar    1  UNL1        0.1506
     14 F          62.2818   79.1262   12.8733 F       1  UNL1       -0.2033
     15 C          62.8955   81.3244   11.6317 C.ar    1  UNL1        0.0850
     16 CL         63.1147   80.5487   10.3667 Cl      1  UNL1       -0.0799
     17 C          63.0927   82.8113   11.6435 C.ar    1  UNL1        0.0137
     18 C          61.3504   88.2952    9.6984 C.3     1  UNL1        0.1920
     19 C          60.6003   85.2786    7.2312 C.3     1  UNL1        0.1150
     20 N          60.3953   86.4873    8.0954 N.am    1  UNL1       -0.2744
     21 C          59.0306   87.0971    8.2207 C.3     1  UNL1        0.1150
     22 C          61.5552   87.0864    8.8342 C.2     1  UNL1        0.2488
     23 O          62.9200   86.4766    8.7088 O.2     1  UNL1       -0.2728
@<TRIPOS>BOND
     1    19    20    1
     2    20    21    1
     3    20    22   am
     4    22    23    2
     5    22    18    1
     6    18     1    1
     7     1     2   ar
     8     2     3   ar
     9     3     4   ar
    10     4     5   ar
    11     5     6   ar
    12     6     7   ar
    13     7    10    1
    14    10    11   ar
    15    11    12   ar
    16    12    13   ar
    17    13    14    1
    18    13    15   ar
    19    15    16    1
    20    15    17   ar
    21     7     8   ar
    22     8     9   ar
    23     9     1   ar
    24     9     4   ar
    25    17    10   ar
