@<TRIPOS>MOLECULE
*****
 46 51 0 0 0
SMALL
GASTEIGER

@<TRIPOS>ATOM
      1 C          63.0763   85.5488   12.2006 C.ar    1  UNL1        0.0500
      2 C          62.4738   86.2201   11.0021 C.ar    1  UNL1        0.0146
      3 C          62.2895   87.7086   10.9900 C.ar    1  UNL1        0.0025
      4 C          62.7078   88.5259   12.1762 C.ar    1  UNL1        0.0043
      5 C          63.3103   87.8546   13.3746 C.ar    1  UNL1        0.0506
      6 C          63.4946   86.3660   13.3868 C.ar    1  UNL1       -0.0038
      7 C          64.0971   85.6946   14.5853 C.3     1  UNL1        0.0325
      8 C          61.6869   88.3800    9.7915 C.ar    1  UNL1        0.0137
      9 C          60.7878   87.6077    8.8722 C.ar    1  UNL1        0.0040
     10 C          60.1853   88.2790    7.6738 C.ar    1  UNL1        0.0343
     11 C          60.4818   89.7227    7.3946 C.ar    1  UNL1        0.1313
     12 N          61.3810   90.4950    8.3139 N.ar    1  UNL1       -0.2350
     13 C          61.9836   89.8236    9.5124 C.ar    1  UNL1        0.0607
     14 C          62.8827   90.5959   10.4316 C.3     1  UNL1        0.0521
     15 N          59.8793   90.3940    6.1962 N.pl3   1  UNL1       -0.2904
     16 C          60.7660   90.9257    5.1094 C.3     1  UNL1        0.1095
     17 C          60.1635   91.5970    3.9110 C.3     1  UNL1        0.0939
     18 N          58.6741   91.7367    3.7993 N.3     1  UNL1       -0.2698
     19 C          57.7874   91.2051    4.8861 C.3     1  UNL1        0.0939
     20 C          58.3900   90.5337    6.0846 C.3     1  UNL1        0.1095
     21 C          58.0716   92.4080    2.6009 C.3     1  UNL1        0.0721
     22 C          58.9537   92.8821    1.4842 C.3     1  UNL1        0.0160
     23 C          59.6559   93.9969    0.7673 C.3     1  UNL1        0.0014
     24 C          59.7795   92.5883    0.2669 C.3     1  UNL1        0.0014
     25 C          63.7285   88.6718   14.5609 C.2     1  UNL1        0.2456
     26 O          64.3045   87.9976   15.7706 O.2     1  UNL1       -0.2702
     27 N          63.5708   90.1633   14.5373 N.am    1  UNL1       -0.3001
     28 H          63.1928   90.6058   13.7433 H       1  UNL1        0.1498
     29 C          63.9891   90.9806   15.7235 C.3     1  UNL1        0.1029
     30 C          65.2784   91.7466   15.6896 C.3     1  UNL1        0.1164
     31 C          66.0842   91.8029   14.4257 C.2     1  UNL1       -0.0330
     32 C          65.6009   91.0932   13.1958 C.3     1  UNL1        0.0269
     33 C          67.3735   92.5689   14.3918 C.2     1  UNL1        0.0042
     34 C          67.8568   93.2787   15.6217 C.2     1  UNL1        0.0508
     35 C          69.1460   94.0447   15.5878 C.3     1  UNL1        0.0493
     36 N          67.0509   93.2223   16.8856 N.am    1  UNL1       -0.1833
     37 C          65.7617   92.4563   16.9195 C.2     1  UNL1        0.2503
     38 O          64.9557   92.4000   18.1834 O.2     1  UNL1       -0.2726
     39 N          63.2606   84.0601   12.2128 N.am    1  UNL1       -0.2590
     40 C          62.5335   83.2227   13.2227 C.2     1  UNL1        0.2288
     41 O          61.6222   83.8738   14.2205 O.2     1  UNL1       -0.2745
     42 C          62.7178   81.7340   13.2349 C.3     1  UNL1        0.0771
     43 C          62.4541   80.3875   12.6291 C.3     1  UNL1        0.0096
     44 C          63.3008   80.5024   13.8619 C.3     1  UNL1        0.0096
     45 C          63.8168   83.4172    9.7578 C.3     1  UNL1        0.0237
     46 C          64.1720   83.4091   11.2150 C.3     1  UNL1        0.0982
@<TRIPOS>BOND
     1    45    46    1
     2    46    39    1
     3    39    40   am
     4    40    41    2
     5    40    42    1
     6    42    43    1
     7    43    44    1
     8    39     1    1
     9     1     2   ar
    10     2     3   ar
    11     3     8    1
    12     8     9   ar
    13     9    10   ar
    14    10    11   ar
    15    11    15    1
    16    15    16    1
    17    16    17    1
    18    17    18    1
    19    18    21    1
    20    21    22    1
    21    22    23    1
    22    23    24    1
    23    18    19    1
    24    19    20    1
    25    11    12   ar
    26    12    13   ar
    27    13    14    1
    28     3     4   ar
    29     4     5   ar
    30     5    25    1
    31    25    26    2
    32    25    27   am
    33    27    29    1
    34    29    30    1
    35    30    31    1
    36    31    32    1
    37    31    33    2
    38    33    34    1
    39    34    35    1
    40    34    36    2
    41    36    37    1
    42    37    38    2
    43     5     6   ar
    44     6     7    1
    45    44    42    1
    46     6     1   ar
    47    13     8   ar
    48    37    30    1
    49    20    15    1
    50    24    22    1
    51    27    28    1
@<TRIPOS>MOLECULE
*****
 46 51 0 0 0
SMALL
GASTEIGER

@<TRIPOS>ATOM
      1 C          63.7404   89.0207   13.7681 C.ar    1  UNL1        0.0500
      2 C          63.1280   89.5378   12.5002 C.ar    1  UNL1        0.0146
      3 C          62.5346   88.5809   11.5093 C.ar    1  UNL1        0.0025
      4 C          62.5536   87.1068   11.7862 C.ar    1  UNL1        0.0043
      5 C          63.1659   86.5897   13.0541 C.ar    1  UNL1        0.0506
      6 C          63.7594   87.5466   14.0450 C.ar    1  UNL1       -0.0038
      7 C          64.3718   87.0295   15.3130 C.3     1  UNL1        0.0325
      8 C          61.9222   89.0980   10.2414 C.ar    1  UNL1        0.0137
      9 C          60.8450   88.3123    9.5540 C.ar    1  UNL1        0.0040
     10 C          60.2326   88.8294    8.2861 C.ar    1  UNL1        0.0343
     11 C          60.6973   90.1321    7.7055 C.ar    1  UNL1        0.1313
     12 N          61.7744   90.9178    8.3930 N.ar    1  UNL1       -0.2350
     13 C          62.3869   90.4007    9.6609 C.ar    1  UNL1        0.0607
     14 C          63.4640   91.1863   10.3483 C.3     1  UNL1        0.0521
     15 N          60.0849   90.6492    6.4377 N.pl3   1  UNL1       -0.2904
     16 C          58.5955   90.6269    6.2607 C.3     1  UNL1        0.1095
     17 C          57.9831   91.1439    4.9928 C.3     1  UNL1        0.0939
     18 N          58.8600   91.6833    3.9018 N.3     1  UNL1       -0.2698
     19 C          60.3494   91.7055    4.0788 C.3     1  UNL1        0.0939
     20 C          60.9618   91.1885    5.3468 C.3     1  UNL1        0.1095
     21 C          58.2476   92.2003    2.6340 C.3     1  UNL1        0.0721
     22 C          59.1213   92.7783    1.5603 C.3     1  UNL1        0.0160
     23 C          60.2109   92.6125    0.5429 C.3     1  UNL1        0.0014
     24 C          59.5448   93.9450    0.7182 C.3     1  UNL1        0.0014
     25 C          63.1849   85.1156   13.3310 C.2     1  UNL1        0.2456
     26 O          61.9186   84.4078   13.7124 O.2     1  UNL1       -0.2702
     27 N          64.4701   84.3493   13.2266 N.am    1  UNL1       -0.3001
     28 H          65.3012   84.8138   12.9762 H       1  UNL1        0.1498
     29 C          64.4891   82.8752   13.5035 C.3     1  UNL1        0.1029
     30 C          63.9588   81.9133   12.4819 C.3     1  UNL1        0.1164
     31 C          63.1747   80.7116   12.9191 C.2     1  UNL1       -0.0330
     32 C          62.9208   80.4718   14.3778 C.3     1  UNL1        0.0269
     33 C          62.6444   79.7497   11.8975 C.2     1  UNL1        0.0042
     34 C          62.8984   79.9895   10.4387 C.2     1  UNL1        0.0508
     35 C          62.3682   79.0277    9.4171 C.3     1  UNL1        0.0493
     36 N          63.6825   81.1912   10.0015 N.am    1  UNL1       -0.1833
     37 C          64.2127   82.1531   11.0231 C.2     1  UNL1        0.2503
     38 O          64.9969   83.3548   10.5859 O.2     1  UNL1       -0.2726
     39 N          64.3339   89.9777   14.7591 N.am    1  UNL1       -0.2590
     40 C          65.3592   90.9782   14.3143 C.2     1  UNL1        0.2288
     41 O          65.7910   91.0217   12.8784 O.2     1  UNL1       -0.2745
     42 C          65.9527   91.9351   15.3053 C.3     1  UNL1        0.0771
     43 C          65.8345   92.7387   16.5663 C.3     1  UNL1        0.0096
     44 C          67.0987   92.7891   15.7606 C.3     1  UNL1        0.0096
     45 C          62.4661   89.6699   16.5386 C.3     1  UNL1        0.0237
     46 C          63.9021   89.9342   16.1949 C.3     1  UNL1        0.0982
@<TRIPOS>BOND
     1    45    46    1
     2    46    39    1
     3    39    40   am
     4    40    41    2
     5    40    42    1
     6    42    43    1
     7    43    44    1
     8    39     1    1
     9     1     2   ar
    10     2     3   ar
    11     3     8    1
    12     8     9   ar
    13     9    10   ar
    14    10    11   ar
    15    11    15    1
    16    15    16    1
    17    16    17    1
    18    17    18    1
    19    18    21    1
    20    21    22    1
    21    22    23    1
    22    23    24    1
    23    18    19    1
    24    19    20    1
    25    11    12   ar
    26    12    13   ar
    27    13    14    1
    28     3     4   ar
    29     4     5   ar
    30     5    25    1
    31    25    26    2
    32    25    27   am
    33    27    29    1
    34    29    30    1
    35    30    31    1
    36    31    32    1
    37    31    33    2
    38    33    34    1
    39    34    35    1
    40    34    36    2
    41    36    37    1
    42    37    38    2
    43     5     6   ar
    44     6     7    1
    45    44    42    1
    46     6     1   ar
    47    13     8   ar
    48    37    30    1
    49    20    15    1
    50    24    22    1
    51    27    28    1
@<TRIPOS>MOLECULE
*****
 46 51 0 0 0
SMALL
GASTEIGER

@<TRIPOS>ATOM
      1 C          63.7594   88.9728   13.8011 C.ar    1  UNL1        0.0500
      2 C          63.1518   89.4933   12.5323 C.ar    1  UNL1        0.0146
      3 C          62.5650   88.5387   11.5352 C.ar    1  UNL1        0.0025
      4 C          62.5858   87.0637   11.8068 C.ar    1  UNL1        0.0043
      5 C          63.1934   86.5432   13.0756 C.ar    1  UNL1        0.0506
      6 C          63.7802   87.4978   14.0728 C.ar    1  UNL1       -0.0038
      7 C          64.3878   86.9773   15.3417 C.3     1  UNL1        0.0325
      8 C          61.9574   89.0592   10.2663 C.ar    1  UNL1        0.0137
      9 C          62.3965   90.3820    9.7120 C.ar    1  UNL1        0.0040
     10 C          61.7890   90.9025    8.4432 C.ar    1  UNL1        0.0343
     11 C          60.7423   90.1001    7.7286 C.ar    1  UNL1        0.1313
     12 N          60.3032   88.7772    8.2828 N.ar    1  UNL1       -0.2350
     13 C          60.9108   88.2568    9.5517 C.ar    1  UNL1        0.0607
     14 C          60.4717   86.9339   10.1060 C.3     1  UNL1        0.0521
     15 N          60.1347   90.6205    6.4597 N.pl3   1  UNL1       -0.2904
     16 C          58.6446   90.6247    6.2883 C.3     1  UNL1        0.1095
     17 C          58.0370   91.1452    5.0195 C.3     1  UNL1        0.0939
     18 N          58.9197   91.6615    3.9220 N.3     1  UNL1       -0.2698
     19 C          60.4098   91.6574    4.0934 C.3     1  UNL1        0.0939
     20 C          61.0174   91.1369    5.3623 C.3     1  UNL1        0.1095
     21 C          58.3121   92.1820    2.6532 C.3     1  UNL1        0.0721
     22 C          59.1856   92.7992    1.6015 C.3     1  UNL1        0.0160
     23 C          60.1214   93.8869    1.1644 C.3     1  UNL1        0.0014
     24 C          59.7625   92.7807    0.2171 C.3     1  UNL1        0.0014
     25 C          63.2141   85.0681   13.3473 C.2     1  UNL1        0.2456
     26 O          61.9367   84.3437   13.6527 O.2     1  UNL1       -0.2702
     27 N          64.5123   84.3175   13.3134 N.am    1  UNL1       -0.3001
     28 H          65.3508   84.7929   13.1129 H       1  UNL1        0.1498
     29 C          64.5331   82.8424   13.5851 C.3     1  UNL1        0.1029
     30 C          63.9855   81.8849   12.5686 C.3     1  UNL1        0.1164
     31 C          64.0843   82.2054   11.1066 C.2     1  UNL1       -0.0330
     32 C          64.7307   83.4836   10.6610 C.3     1  UNL1        0.0269
     33 C          63.5367   81.2478   10.0901 C.2     1  UNL1        0.0042
     34 C          62.8903   79.9697   10.5356 C.2     1  UNL1        0.0508
     35 C          62.3427   79.0121    9.5192 C.3     1  UNL1        0.0493
     36 N          62.7915   79.6491   11.9977 N.am    1  UNL1       -0.1833
     37 C          63.3391   80.6067   13.0141 C.2     1  UNL1        0.2503
     38 O          63.2403   80.2862   14.4762 O.2     1  UNL1       -0.2726
     39 N          64.3463   89.9274   14.7984 N.am    1  UNL1       -0.2590
     40 C          65.3562   90.9453   14.3579 C.2     1  UNL1        0.2288
     41 O          65.7793   91.0086   12.9202 O.2     1  UNL1       -0.2745
     42 C          65.9430   91.8999   15.3552 C.3     1  UNL1        0.0771
     43 C          67.1010   92.7182   15.8444 C.3     1  UNL1        0.0096
     44 C          65.8014   92.7349   16.5932 C.3     1  UNL1        0.0096
     45 C          62.5145   89.4871   16.5874 C.3     1  UNL1        0.0237
     46 C          63.9231   89.8641   16.2361 C.3     1  UNL1        0.0982
@<TRIPOS>BOND
     1    45    46    1
     2    46    39    1
     3    39    40   am
     4    40    41    2
     5    40    42    1
     6    42    43    1
     7    43    44    1
     8    39     1    1
     9     1     2   ar
    10     2     3   ar
    11     3     8    1
    12     8     9   ar
    13     9    10   ar
    14    10    11   ar
    15    11    15    1
    16    15    16    1
    17    16    17    1
    18    17    18    1
    19    18    21    1
    20    21    22    1
    21    22    23    1
    22    23    24    1
    23    18    19    1
    24    19    20    1
    25    11    12   ar
    26    12    13   ar
    27    13    14    1
    28     3     4   ar
    29     4     5   ar
    30     5    25    1
    31    25    26    2
    32    25    27   am
    33    27    29    1
    34    29    30    1
    35    30    31    1
    36    31    32    1
    37    31    33    2
    38    33    34    1
    39    34    35    1
    40    34    36    2
    41    36    37    1
    42    37    38    2
    43     5     6   ar
    44     6     7    1
    45    44    42    1
    46     6     1   ar
    47    13     8   ar
    48    37    30    1
    49    20    15    1
    50    24    22    1
    51    27    28    1
@<TRIPOS>MOLECULE
*****
 46 51 0 0 0
SMALL
GASTEIGER

@<TRIPOS>ATOM
      1 C          62.6009   85.5301   12.0846 C.ar    1  UNL1        0.0500
      2 C          62.0608   86.2368   10.8768 C.ar    1  UNL1        0.0146
      3 C          62.0502   87.7359   10.8273 C.ar    1  UNL1        0.0025
      4 C          62.5797   88.5284   11.9856 C.ar    1  UNL1        0.0043
      5 C          63.1199   87.8217   13.1934 C.ar    1  UNL1        0.0506
      6 C          63.1305   86.3226   13.2429 C.ar    1  UNL1       -0.0038
      7 C          63.6706   85.6158   14.4507 C.3     1  UNL1        0.0325
      8 C          61.5100   88.4427    9.6195 C.ar    1  UNL1        0.0137
      9 C          60.5544   87.7379    8.7030 C.ar    1  UNL1        0.0040
     10 C          60.0142   88.4446    7.4952 C.ar    1  UNL1        0.0343
     11 C          60.4297   89.8562    7.2039 C.ar    1  UNL1        0.1313
     12 N          61.3853   90.5610    8.1204 N.ar    1  UNL1       -0.2350
     13 C          61.9255   89.8543    9.3282 C.ar    1  UNL1        0.0607
     14 C          62.8811   90.5591   10.2447 C.3     1  UNL1        0.0521
     15 N          59.8895   90.5629    5.9961 N.pl3   1  UNL1       -0.2904
     16 C          60.8297   91.0950    4.9555 C.3     1  UNL1        0.1095
     17 C          60.2896   91.8017    3.7478 C.3     1  UNL1        0.0939
     18 N          58.8091   91.9763    3.5805 N.3     1  UNL1       -0.2698
     19 C          57.8689   91.4441    4.6211 C.3     1  UNL1        0.0939
     20 C          58.4092   90.7374    5.8290 C.3     1  UNL1        0.1095
     21 C          58.2690   92.6830    2.3728 C.3     1  UNL1        0.0721
     22 C          59.1787   93.0103    1.2259 C.3     1  UNL1        0.0160
     23 C          60.1793   93.9229    0.5812 C.3     1  UNL1        0.0014
     24 C          59.7538   92.6646   -0.1156 C.3     1  UNL1        0.0014
     25 C          63.6494   88.6141   14.3517 C.2     1  UNL1        0.2456
     26 O          64.6123   87.9840   15.3139 O.2     1  UNL1       -0.2702
     27 N          63.2161   90.0367   14.5478 N.am    1  UNL1       -0.3001
     28 H          62.5842   90.4503   13.9164 H       1  UNL1        0.1498
     29 C          63.7457   90.8291   15.7061 C.3     1  UNL1        0.1029
     30 C          65.0499   91.5596   15.5814 C.3     1  UNL1        0.1164
     31 C          65.7729   91.5844   14.2674 C.2     1  UNL1       -0.0330
     32 C          65.1917   90.8788   13.0781 C.3     1  UNL1        0.0269
     33 C          67.0771   92.3149   14.1426 C.2     1  UNL1        0.0042
     34 C          67.6583   93.0205   15.3319 C.2     1  UNL1        0.0508
     35 C          68.9625   93.7509   15.2072 C.3     1  UNL1        0.0493
     36 N          66.9352   92.9956   16.6460 N.am    1  UNL1       -0.1833
     37 C          65.6311   92.2651   16.7707 C.2     1  UNL1        0.2503
     38 O          64.9080   92.2403   18.0847 O.2     1  UNL1       -0.2726
     39 N          62.6115   84.0310   12.1342 N.am    1  UNL1       -0.2590
     40 C          63.1548   83.2461   10.9771 C.2     1  UNL1        0.2288
     41 O          63.6875   83.9604    9.7705 O.2     1  UNL1       -0.2745
     42 C          63.1654   81.7469   11.0267 C.3     1  UNL1        0.0771
     43 C          63.1389   80.4237   10.3208 C.3     1  UNL1        0.0096
     44 C          63.2104   80.4736   11.8183 C.3     1  UNL1        0.0096
     45 C          63.0248   82.7881   14.3779 C.3     1  UNL1        0.0237
     46 C          62.0788   83.3167   13.3408 C.3     1  UNL1        0.0982
@<TRIPOS>BOND
     1    45    46    1
     2    46    39    1
     3    39    40   am
     4    40    41    2
     5    40    42    1
     6    42    43    1
     7    43    44    1
     8    39     1    1
     9     1     2   ar
    10     2     3   ar
    11     3     8    1
    12     8     9   ar
    13     9    10   ar
    14    10    11   ar
    15    11    15    1
    16    15    16    1
    17    16    17    1
    18    17    18    1
    19    18    21    1
    20    21    22    1
    21    22    23    1
    22    23    24    1
    23    18    19    1
    24    19    20    1
    25    11    12   ar
    26    12    13   ar
    27    13    14    1
    28     3     4   ar
    29     4     5   ar
    30     5    25    1
    31    25    26    2
    32    25    27   am
    33    27    29    1
    34    29    30    1
    35    30    31    1
    36    31    32    1
    37    31    33    2
    38    33    34    1
    39    34    35    1
    40    34    36    2
    41    36    37    1
    42    37    38    2
    43     5     6   ar
    44     6     7    1
    45    44    42    1
    46     6     1   ar
    47    13     8   ar
    48    37    30    1
    49    20    15    1
    50    24    22    1
    51    27    28    1
@<TRIPOS>MOLECULE
*****
 46 51 0 0 0
SMALL
GASTEIGER

@<TRIPOS>ATOM
      1 C          62.6933   85.6397   12.2024 C.ar    1  UNL1        0.0500
      2 C          62.1185   86.3154   10.9929 C.ar    1  UNL1        0.0146
      3 C          62.1352   87.8118   10.8909 C.ar    1  UNL1        0.0025
      4 C          62.7267   88.6325   11.9985 C.ar    1  UNL1        0.0043
      5 C          63.3015   87.9568   13.2079 C.ar    1  UNL1        0.0506
      6 C          63.2848   86.4604   13.3099 C.ar    1  UNL1       -0.0038
      7 C          63.8597   85.7846   14.5194 C.3     1  UNL1        0.0325
      8 C          61.5603   88.4877    9.6814 C.ar    1  UNL1        0.0137
      9 C          60.6299   87.7380    8.7746 C.ar    1  UNL1        0.0040
     10 C          60.0551   88.4137    7.5651 C.ar    1  UNL1        0.0343
     11 C          60.4106   89.8392    7.2624 C.ar    1  UNL1        0.1313
     12 N          61.3410   90.5889    8.1692 N.ar    1  UNL1       -0.2350
     13 C          61.9159   89.9131    9.3787 C.ar    1  UNL1        0.0607
     14 C          62.8463   90.6628   10.2855 C.3     1  UNL1        0.0521
     15 N          59.8358   90.5150    6.0529 N.pl3   1  UNL1       -0.2904
     16 C          58.3491   90.6457    5.9024 C.3     1  UNL1        0.1095
     17 C          57.7742   91.3214    4.6929 C.3     1  UNL1        0.0939
     18 N          58.6861   91.8665    3.6339 N.3     1  UNL1       -0.2698
     19 C          60.1728   91.7358    3.7844 C.3     1  UNL1        0.0939
     20 C          60.7476   91.0600    4.9939 C.3     1  UNL1        0.1095
     21 C          58.1113   92.5422    2.4244 C.3     1  UNL1        0.0721
     22 C          59.0137   92.9753    1.3072 C.3     1  UNL1        0.0160
     23 C          59.7723   94.0553    0.5945 C.3     1  UNL1        0.0014
     24 C          59.8183   92.6452    0.0851 C.3     1  UNL1        0.0014
     25 C          63.8930   88.7775   14.3155 C.2     1  UNL1        0.2456
     26 O          64.8519   88.1506   15.2836 O.2     1  UNL1       -0.2702
     27 N          63.5255   90.2250   14.4549 N.am    1  UNL1       -0.3001
     28 H          62.8961   90.6365   13.8194 H       1  UNL1        0.1498
     29 C          64.1170   91.0457   15.5624 C.3     1  UNL1        0.1029
     30 C          65.4807   91.6497   15.4023 C.3     1  UNL1        0.1164
     31 C          66.1102   92.3933   16.5428 C.2     1  UNL1       -0.0330
     32 C          65.3761   92.5330   17.8433 C.3     1  UNL1        0.0269
     33 C          67.4740   92.9973   16.3827 C.2     1  UNL1        0.0042
     34 C          68.2081   92.8577   15.0821 C.2     1  UNL1        0.0508
     35 C          69.5717   93.4616   14.9219 C.3     1  UNL1        0.0493
     36 N          67.5785   92.1140   13.9416 N.am    1  UNL1       -0.1833
     37 C          66.2149   91.5100   14.1017 C.2     1  UNL1        0.2503
     38 O          65.5853   90.7663   12.9612 O.2     1  UNL1       -0.2726
     39 N          62.6767   84.1432   12.3044 N.am    1  UNL1       -0.2590
     40 C          62.1694   83.4821   13.5515 C.2     1  UNL1        0.2288
     41 O          61.6786   84.3174   14.6967 O.2     1  UNL1       -0.2745
     42 C          62.1527   81.9856   13.6535 C.3     1  UNL1        0.0771
     43 C          61.3894   80.7006   13.7806 C.3     1  UNL1        0.0096
     44 C          62.8872   80.6787   13.7030 C.3     1  UNL1        0.0096
     45 C          64.6403   83.1457   10.9263 C.3     1  UNL1        0.0237
     46 C          63.1675   83.3079   11.1592 C.3     1  UNL1        0.0982
@<TRIPOS>BOND
     1    45    46    1
     2    46    39    1
     3    39    40   am
     4    40    41    2
     5    40    42    1
     6    42    43    1
     7    43    44    1
     8    39     1    1
     9     1     2   ar
    10     2     3   ar
    11     3     8    1
    12     8     9   ar
    13     9    10   ar
    14    10    11   ar
    15    11    15    1
    16    15    16    1
    17    16    17    1
    18    17    18    1
    19    18    21    1
    20    21    22    1
    21    22    23    1
    22    23    24    1
    23    18    19    1
    24    19    20    1
    25    11    12   ar
    26    12    13   ar
    27    13    14    1
    28     3     4   ar
    29     4     5   ar
    30     5    25    1
    31    25    26    2
    32    25    27   am
    33    27    29    1
    34    29    30    1
    35    30    31    1
    36    31    32    1
    37    31    33    2
    38    33    34    1
    39    34    35    1
    40    34    36    2
    41    36    37    1
    42    37    38    2
    43     5     6   ar
    44     6     7    1
    45    44    42    1
    46     6     1   ar
    47    13     8   ar
    48    37    30    1
    49    20    15    1
    50    24    22    1
    51    27    28    1
@<TRIPOS>MOLECULE
*****
 46 51 0 0 0
SMALL
GASTEIGER

@<TRIPOS>ATOM
      1 C          63.3787   89.1012   13.4854 C.ar    1  UNL1        0.0500
      2 C          62.7946   89.6491   12.2171 C.ar    1  UNL1        0.0146
      3 C          62.3909   88.7171   11.1134 C.ar    1  UNL1        0.0025
      4 C          62.5713   87.2371   11.2780 C.ar    1  UNL1        0.0043
      5 C          63.1554   86.6892   12.5462 C.ar    1  UNL1        0.0506
      6 C          63.5591   87.6212   13.6500 C.ar    1  UNL1       -0.0038
      7 C          64.1433   87.0733   14.9183 C.3     1  UNL1        0.0325
      8 C          61.8068   89.2650    9.8451 C.ar    1  UNL1        0.0137
      9 C          62.3594   90.5251    9.2479 C.ar    1  UNL1        0.0040
     10 C          61.7753   91.0730    7.9796 C.ar    1  UNL1        0.0343
     11 C          60.6385   90.3608    7.3084 C.ar    1  UNL1        0.1313
     12 N          60.0859   89.1006    7.9056 N.ar    1  UNL1       -0.2350
     13 C          60.6700   88.5527    9.1739 C.ar    1  UNL1        0.0607
     14 C          60.1174   87.2926    9.7711 C.3     1  UNL1        0.0521
     15 N          60.0545   90.9087    6.0401 N.pl3   1  UNL1       -0.2904
     16 C          60.9588   91.3661    4.9342 C.3     1  UNL1        0.1095
     17 C          60.3747   91.9140    3.6660 C.3     1  UNL1        0.0939
     18 N          58.8862   92.0046    3.5035 N.3     1  UNL1       -0.2698
     19 C          57.9819   91.5472    4.6094 C.3     1  UNL1        0.0939
     20 C          58.5661   90.9993    5.8778 C.3     1  UNL1        0.1095
     21 C          58.3021   92.5525    2.2352 C.3     1  UNL1        0.0721
     22 C          59.1937   92.8504    1.0663 C.3     1  UNL1        0.0160
     23 C          59.9839   92.3786   -0.1181 C.3     1  UNL1        0.0014
     24 C          59.9477   93.8381    0.2262 C.3     1  UNL1        0.0014
     25 C          63.3359   85.2092   12.7108 C.2     1  UNL1        0.2456
     26 O          62.3411   84.2609   12.1097 O.2     1  UNL1       -0.2702
     27 N          64.5110   84.6774   13.4764 N.am    1  UNL1       -0.3001
     28 H          65.1639   85.2998   13.8710 H       1  UNL1        0.1498
     29 C          64.6914   83.1974   13.6410 C.3     1  UNL1        0.1029
     30 C          63.4920   82.3029   13.7477 C.3     1  UNL1        0.1164
     31 C          62.4643   82.5502   14.8119 C.2     1  UNL1       -0.0330
     32 C          62.6359   83.6919   15.7695 C.3     1  UNL1        0.0269
     33 C          61.2648   81.6557   14.9186 C.2     1  UNL1        0.0042
     34 C          61.0932   80.5140   13.9610 C.2     1  UNL1        0.0508
     35 C          59.8938   79.6195   14.0677 C.3     1  UNL1        0.0493
     36 N          62.1210   80.2667   12.8967 N.am    1  UNL1       -0.1833
     37 C          63.3203   81.1612   12.7901 C.2     1  UNL1        0.2503
     38 O          64.3481   80.9140   11.7258 O.2     1  UNL1       -0.2726
     39 N          63.7824   90.0333   14.5892 N.am    1  UNL1       -0.2590
     40 C          64.9978   90.8984   14.4334 C.2     1  UNL1        0.2288
     41 O          65.8096   90.8315   13.1738 O.2     1  UNL1       -0.2745
     42 C          65.4015   91.8305   15.5372 C.3     1  UNL1        0.0771
     43 C          65.0956   92.5153   16.8362 C.3     1  UNL1        0.0096
     44 C          66.4067   92.7601   16.1500 C.3     1  UNL1        0.0096
     45 C          63.1804   89.0830   16.9311 C.3     1  UNL1        0.0237
     46 C          62.9707   90.1002   15.8488 C.3     1  UNL1        0.0982
@<TRIPOS>BOND
     1    45    46    1
     2    46    39    1
     3    39    40   am
     4    40    41    2
     5    40    42    1
     6    42    43    1
     7    43    44    1
     8    39     1    1
     9     1     2   ar
    10     2     3   ar
    11     3     8    1
    12     8     9   ar
    13     9    10   ar
    14    10    11   ar
    15    11    15    1
    16    15    16    1
    17    16    17    1
    18    17    18    1
    19    18    21    1
    20    21    22    1
    21    22    23    1
    22    23    24    1
    23    18    19    1
    24    19    20    1
    25    11    12   ar
    26    12    13   ar
    27    13    14    1
    28     3     4   ar
    29     4     5   ar
    30     5    25    1
    31    25    26    2
    32    25    27   am
    33    27    29    1
    34    29    30    1
    35    30    31    1
    36    31    32    1
    37    31    33    2
    38    33    34    1
    39    34    35    1
    40    34    36    2
    41    36    37    1
    42    37    38    2
    43     5     6   ar
    44     6     7    1
    45    44    42    1
    46     6     1   ar
    47    13     8   ar
    48    37    30    1
    49    20    15    1
    50    24    22    1
    51    27    28    1
