@<TRIPOS>MOLECULE
*****
 39 43 0 0 0
SMALL
GASTEIGER

@<TRIPOS>ATOM
      1 N          63.4870   85.8113   12.9925 N.am    1  UNL1       -0.2769
      2 C          64.1843   84.4957   13.1741 C.2     1  UNL1        0.2305
      3 O          65.0816   84.2794   14.3564 O.2     1  UNL1       -0.2747
      4 C          63.9842   83.3964   12.1733 C.3     1  UNL1        0.1328
      5 C          64.7150   83.4320   10.8639 C.3     1  UNL1        0.0816
      6 N          64.5149   82.3327    9.8632 N.3     1  UNL1       -0.2968
      7 C          63.5840   81.1977   10.1719 C.3     1  UNL1        0.0726
      8 C          62.8532   81.1621   11.4814 C.3     1  UNL1        0.0619
      9 C          63.0533   82.2614   12.4820 C.3     1  UNL1        0.1625
     10 O          62.1224   81.1265   12.7908 O.2     1  UNL1       -0.4749
     11 C          61.3916   81.0909   14.1003 C.2     1  UNL1        0.1723
     12 C          61.5917   82.1902   15.1010 C.2     1  UNL1        0.0399
     13 C          62.5226   83.3251   14.7922 C.ar    1  UNL1        0.0024
     14 C          62.7227   84.4245   15.7930 C.ar    1  UNL1       -0.0001
     15 C          63.6536   85.5594   15.4843 C.ar    1  UNL1       -0.0000
     16 C          64.3844   85.5950   14.1748 C.ar    1  UNL1       -0.0002
     17 C          64.1843   84.4957   13.1741 C.ar    1  UNL1       -0.0009
     18 C          63.2534   83.3608   13.4828 C.ar    1  UNL1        0.0142
     19 H          65.4323   81.9221    9.6894 H       1  UNL1        0.1233
     20 C          62.5896   86.0275   11.8101 C.3     1  UNL1        0.0758
     21 C          61.2264   86.2995   11.2464 C.3     1  UNL1        0.0215
     22 C          62.3985   86.1300   10.3259 C.3     1  UNL1        0.0215
     23 C          63.6870   86.9106   13.9932 C.3     1  UNL1        0.1201
     24 C          63.2695   90.1568   11.7485 C.ar    1  UNL1       -0.0194
     25 C          63.1906   88.7306   12.2068 C.ar    1  UNL1       -0.0067
     26 C          63.7658   88.3367   13.5349 C.ar    1  UNL1        0.0004
     27 C          64.4199   89.3689   14.4048 C.ar    1  UNL1        0.0343
     28 C          64.4987   90.7951   13.9466 C.ar    1  UNL1        0.1381
     29 C          63.9235   91.1890   12.6185 C.ar    1  UNL1        0.0326
     30 C          62.6943   90.5507   10.4204 C.3     1  UNL1        0.0290
     31 C          61.7291   89.6399    9.7213 C.3     1  UNL1        0.0367
     32 C          60.2525   89.8225    9.9127 C.3     1  UNL1        0.1426
     33 C          59.3519   89.5479   12.3341 C.3     1  UNL1        0.1741
     34 O          59.7301   90.4295   11.1810 O.3     1  UNL1       -0.3511
     35 O          65.1528   91.8273   14.8166 O.3     1  UNL1       -0.4728
     36 C          66.2360   92.7016   14.2579 C.3     1  UNL1        0.2373
     37 C          67.5341   92.0958   13.8131 C.3     1  UNL1        0.1894
     38 O          68.8256   92.5631   14.4162 O.3     1  UNL1       -0.3471
     39 C          68.8142   93.3699   15.6807 C.3     1  UNL1        0.1743
@<TRIPOS>BOND
     1    33    34    1
     2    34    32    1
     3    32    31    1
     4    31    30    1
     5    30    24    1
     6    24    25   ar
     7    25    26   ar
     8    26    23    1
     9    23     1    1
    10     1     2   am
    11     2     3    2
    12     4     2    1
    13     4     5    1
    14     5     6    1
    15     6     7    1
    16     7     8    1
    17     9     8    1
    18     9    10    1
    19    10    11    1
    20    11    12    2
    21    12    13    1
    22    13    14   ar
    23    14    15   ar
    24    15    16   ar
    25    16    17   ar
    26    17    18   ar
    27     1    20    1
    28    20    21    1
    29    21    22    1
    30    26    27   ar
    31    27    28   ar
    32    28    35    1
    33    35    36    1
    34    36    37    1
    35    37    38    1
    36    38    39    1
    37    28    29   ar
    38    29    24   ar
    39     9     4    1
    40    18    13   ar
    41    22    20    1
    42    18     9    1
    43     6    19    1
@<TRIPOS>MOLECULE
*****
 39 43 0 0 0
SMALL
GASTEIGER

@<TRIPOS>ATOM
      1 N          63.4619   85.7582   13.0120 N.am    1  UNL1       -0.2769
      2 C          64.1584   84.4404   13.1805 C.2     1  UNL1        0.2305
      3 O          65.0321   84.2014   14.3761 O.2     1  UNL1       -0.2747
      4 C          63.9811   83.3616   12.1534 C.3     1  UNL1        0.1328
      5 C          64.7275   83.4330   10.8543 C.3     1  UNL1        0.0816
      6 N          64.5503   82.3542    9.8273 N.3     1  UNL1       -0.2968
      7 C          63.6266   81.2041   10.0994 C.3     1  UNL1        0.0726
      8 C          62.8801   81.1328   11.3985 C.3     1  UNL1        0.0619
      9 C          63.0574   82.2115   12.4255 C.3     1  UNL1        0.1625
     10 O          62.1337   81.0614   12.6976 O.2     1  UNL1       -0.4749
     11 C          61.3873   80.9901   13.9968 C.2     1  UNL1        0.1723
     12 C          61.5646   82.0688   15.0238 C.2     1  UNL1        0.0399
     13 C          62.4883   83.2190   14.7517 C.ar    1  UNL1        0.0024
     14 C          62.6655   84.2977   15.7788 C.ar    1  UNL1       -0.0001
     15 C          63.5892   85.4479   15.5067 C.ar    1  UNL1       -0.0000
     16 C          64.3357   85.5192   14.2075 C.ar    1  UNL1       -0.0002
     17 C          64.1584   84.4404   13.1805 C.ar    1  UNL1       -0.0009
     18 C          63.2347   83.2903   13.4526 C.ar    1  UNL1        0.0142
     19 H          65.4736   81.9562    9.6560 H       1  UNL1        0.1233
     20 C          62.5881   85.9971   11.8163 C.3     1  UNL1        0.0758
     21 C          62.4275   86.1336   10.3312 C.3     1  UNL1        0.0215
     22 C          61.2354   86.2745   11.2306 C.3     1  UNL1        0.0215
     23 C          63.6391   86.8369   14.0390 C.3     1  UNL1        0.1201
     24 C          64.7510   90.6465   14.0055 C.ar    1  UNL1       -0.0194
     25 C          64.6000   89.2178   14.4368 C.ar    1  UNL1       -0.0067
     26 C          63.7901   88.2656   13.6077 C.ar    1  UNL1        0.0004
     27 C          63.1311   88.7422   12.3473 C.ar    1  UNL1        0.0343
     28 C          63.2821   90.1709   11.9160 C.ar    1  UNL1        0.1381
     29 C          64.0920   91.1230   12.7450 C.ar    1  UNL1        0.0326
     30 C          65.5609   91.5986   14.8346 C.3     1  UNL1        0.0290
     31 C          67.0592   91.5485   14.7852 C.3     1  UNL1        0.0367
     32 C          67.7808   91.9152   13.5223 C.3     1  UNL1        0.1426
     33 C          66.8995   92.7073   11.2102 C.3     1  UNL1        0.1741
     34 O          67.2431   93.0027   12.6401 O.3     1  UNL1       -0.3511
     35 O          62.6231   90.6474   10.6555 O.3     1  UNL1       -0.4728
     36 C          61.6093   89.7831    9.9662 C.3     1  UNL1        0.2373
     37 C          60.1488   90.1067   10.0766 C.3     1  UNL1        0.1894
     38 O          59.5531   90.4394   11.4125 O.3     1  UNL1       -0.3471
     39 C          59.2540   89.3452   12.3938 C.3     1  UNL1        0.1743
@<TRIPOS>BOND
     1    33    34    1
     2    34    32    1
     3    32    31    1
     4    31    30    1
     5    30    24    1
     6    24    25   ar
     7    25    26   ar
     8    26    23    1
     9    23     1    1
    10     1     2   am
    11     2     3    2
    12     4     2    1
    13     4     5    1
    14     5     6    1
    15     6     7    1
    16     7     8    1
    17     9     8    1
    18     9    10    1
    19    10    11    1
    20    11    12    2
    21    12    13    1
    22    13    14   ar
    23    14    15   ar
    24    15    16   ar
    25    16    17   ar
    26    17    18   ar
    27     1    20    1
    28    20    21    1
    29    21    22    1
    30    26    27   ar
    31    27    28   ar
    32    28    35    1
    33    35    36    1
    34    36    37    1
    35    37    38    1
    36    38    39    1
    37    28    29   ar
    38    29    24   ar
    39     9     4    1
    40    18    13   ar
    41    22    20    1
    42    18     9    1
    43     6    19    1
@<TRIPOS>MOLECULE
*****
 39 43 0 0 0
SMALL
GASTEIGER

@<TRIPOS>ATOM
      1 N          63.4652   85.8412   12.7268 N.am    1  UNL1       -0.2769
      2 C          64.1435   84.5332   13.0085 C.2     1  UNL1        0.2305
      3 O          65.0344   84.3932   14.2070 O.2     1  UNL1       -0.2747
      4 C          63.9307   83.3653   12.0915 C.3     1  UNL1        0.1328
      5 C          64.6136   83.3257   10.7566 C.3     1  UNL1        0.0816
      6 N          64.4009   82.1578    9.8397 N.3     1  UNL1       -0.2968
      7 C          63.5052   81.0295   10.2578 C.3     1  UNL1        0.0726
      8 C          62.8224   81.0691   11.5927 C.3     1  UNL1        0.0619
      9 C          63.0351   82.2370   12.5096 C.3     1  UNL1        0.1625
     10 O          62.1395   81.1087   12.9276 O.2     1  UNL1       -0.4749
     11 C          61.4566   81.1483   14.2626 C.2     1  UNL1        0.1723
     12 C          61.6693   82.3162   15.1795 C.2     1  UNL1        0.0399
     13 C          62.5650   83.4445   14.7614 C.ar    1  UNL1        0.0024
     14 C          62.7777   84.6125   15.6784 C.ar    1  UNL1       -0.0001
     15 C          63.6733   85.7408   15.2604 C.ar    1  UNL1       -0.0000
     16 C          64.3562   85.7011   13.9254 C.ar    1  UNL1       -0.0002
     17 C          64.1435   84.5332   13.0085 C.ar    1  UNL1       -0.0009
     18 C          63.2478   83.4049   13.4265 C.ar    1  UNL1        0.0142
     19 H          65.3198   81.7532    9.6601 H       1  UNL1        0.1233
     20 C          62.5742   85.9811   11.5282 C.3     1  UNL1        0.0758
     21 C          62.4053   86.1182   10.0441 C.3     1  UNL1        0.0215
     22 C          61.2000   86.0865   10.9363 C.3     1  UNL1        0.0215
     23 C          63.6779   87.0091   13.6437 C.3     1  UNL1        0.1201
     24 C          62.7010   90.1033   11.3587 C.ar    1  UNL1       -0.0194
     25 C          62.7711   88.7049   11.8967 C.ar    1  UNL1       -0.0067
     26 C          63.6079   88.4075   13.1056 C.ar    1  UNL1        0.0004
     27 C          64.3746   89.5084   13.7764 C.ar    1  UNL1        0.0343
     28 C          64.3046   90.9069   13.2384 C.ar    1  UNL1        0.1381
     29 C          63.4678   91.2043   12.0295 C.ar    1  UNL1        0.0326
     30 C          61.8643   90.4008   10.1499 C.3     1  UNL1        0.0290
     31 C          60.6191   89.6073    9.8860 C.3     1  UNL1        0.0367
     32 C          60.3881   89.0019    8.5331 C.3     1  UNL1        0.1426
     33 C          59.3566   89.6094    6.2273 C.3     1  UNL1        0.1741
     34 O          59.2107   89.4327    7.7097 O.3     1  UNL1       -0.3511
     35 O          65.0713   92.0079   13.9092 O.3     1  UNL1       -0.4728
     36 C          65.6434   91.7963   15.2796 C.3     1  UNL1        0.2373
     37 C          64.8346   92.1489   16.4926 C.3     1  UNL1        0.1894
     38 O          63.4511   91.5939   16.6589 O.3     1  UNL1       -0.3471
     39 C          63.2428   90.1107   16.7410 C.3     1  UNL1        0.1743
@<TRIPOS>BOND
     1    33    34    1
     2    34    32    1
     3    32    31    1
     4    31    30    1
     5    30    24    1
     6    24    25   ar
     7    25    26   ar
     8    26    23    1
     9    23     1    1
    10     1     2   am
    11     2     3    2
    12     4     2    1
    13     4     5    1
    14     5     6    1
    15     6     7    1
    16     7     8    1
    17     9     8    1
    18     9    10    1
    19    10    11    1
    20    11    12    2
    21    12    13    1
    22    13    14   ar
    23    14    15   ar
    24    15    16   ar
    25    16    17   ar
    26    17    18   ar
    27     1    20    1
    28    20    21    1
    29    21    22    1
    30    26    27   ar
    31    27    28   ar
    32    28    35    1
    33    35    36    1
    34    36    37    1
    35    37    38    1
    36    38    39    1
    37    28    29   ar
    38    29    24   ar
    39     9     4    1
    40    18    13   ar
    41    22    20    1
    42    18     9    1
    43     6    19    1
@<TRIPOS>MOLECULE
*****
 39 43 0 0 0
SMALL
GASTEIGER

@<TRIPOS>ATOM
      1 N          62.8774   86.9149   12.5891 N.am    1  UNL1       -0.2769
      2 C          62.2426   85.6256   12.1595 C.2     1  UNL1        0.2305
      3 O          61.2925   85.6075   10.9990 O.2     1  UNL1       -0.2747
      4 C          62.5580   84.3542   12.8905 C.3     1  UNL1        0.1328
      5 C          62.2205   84.2225   14.3461 C.3     1  UNL1        0.0816
      6 N          62.5359   82.9512   15.0770 N.3     1  UNL1       -0.2968
      7 C          63.1888   81.8116   14.3523 C.3     1  UNL1        0.0726
      8 C          63.5262   81.9433   12.8968 C.3     1  UNL1        0.0619
      9 C          63.2108   83.2146   12.1659 C.3     1  UNL1        0.1625
     10 O          63.8637   82.0750   11.4412 O.2     1  UNL1       -0.4749
     11 C          64.2012   82.2068    9.9856 C.2     1  UNL1        0.1723
     12 C          63.8858   83.4781    9.2546 C.2     1  UNL1        0.0399
     13 C          63.2329   84.6177    9.9793 C.ar    1  UNL1        0.0024
     14 C          62.9176   85.8890    9.2483 C.ar    1  UNL1       -0.0001
     15 C          62.2647   87.0286    9.9730 C.ar    1  UNL1       -0.0000
     16 C          61.9272   86.8969   11.4286 C.ar    1  UNL1       -0.0002
     17 C          62.2426   85.6256   12.1595 C.ar    1  UNL1       -0.0009
     18 C          62.8955   84.4860   11.4349 C.ar    1  UNL1        0.0142
     19 H          61.6537   82.5978   15.4473 H       1  UNL1        0.1233
     20 C          63.8276   86.9330   13.7497 C.3     1  UNL1        0.0758
     21 C          65.0600   86.4121   14.4278 C.3     1  UNL1        0.0215
     22 C          64.2408   87.4850   15.0818 C.3     1  UNL1        0.0215
     23 C          62.5621   88.1862   11.8582 C.3     1  UNL1        0.1201
     24 C          64.5092   90.9821   13.8934 C.ar    1  UNL1       -0.0194
     25 C          63.7472   89.7284   13.5808 C.ar    1  UNL1       -0.0067
     26 C          63.3240   89.4399   12.1709 C.ar    1  UNL1        0.0004
     27 C          63.6628   90.4050   11.0737 C.ar    1  UNL1        0.0343
     28 C          64.4247   91.6587   11.3864 C.ar    1  UNL1        0.1381
     29 C          64.8479   91.9472   12.7962 C.ar    1  UNL1        0.0326
     30 C          64.9324   91.2707   15.3032 C.3     1  UNL1        0.0290
     31 C          66.0776   92.2030   15.5665 C.3     1  UNL1        0.0367
     32 C          67.4681   91.8174   15.1569 C.3     1  UNL1        0.1426
     33 C          68.9466   93.8458   15.8271 C.3     1  UNL1        0.1741
     34 O          68.4627   92.8780   14.7883 O.3     1  UNL1       -0.3511
     35 O          64.7635   92.6238   10.2891 O.3     1  UNL1       -0.4728
     36 C          65.6853   93.7754   10.5613 C.3     1  UNL1        0.2373
     37 C          66.7329   94.1514    9.5559 C.3     1  UNL1        0.1894
     38 O          68.1705   93.8025    9.8043 O.3     1  UNL1       -0.3471
     39 C          68.7188   92.4929    9.3204 C.3     1  UNL1        0.1743
@<TRIPOS>BOND
     1    33    34    1
     2    34    32    1
     3    32    31    1
     4    31    30    1
     5    30    24    1
     6    24    25   ar
     7    25    26   ar
     8    26    23    1
     9    23     1    1
    10     1     2   am
    11     2     3    2
    12     4     2    1
    13     4     5    1
    14     5     6    1
    15     6     7    1
    16     7     8    1
    17     9     8    1
    18     9    10    1
    19    10    11    1
    20    11    12    2
    21    12    13    1
    22    13    14   ar
    23    14    15   ar
    24    15    16   ar
    25    16    17   ar
    26    17    18   ar
    27     1    20    1
    28    20    21    1
    29    21    22    1
    30    26    27   ar
    31    27    28   ar
    32    28    35    1
    33    35    36    1
    34    36    37    1
    35    37    38    1
    36    38    39    1
    37    28    29   ar
    38    29    24   ar
    39     9     4    1
    40    18    13   ar
    41    22    20    1
    42    18     9    1
    43     6    19    1
@<TRIPOS>MOLECULE
*****
 39 43 0 0 0
SMALL
GASTEIGER

@<TRIPOS>ATOM
      1 N          63.6561   85.8135   13.3451 N.am    1  UNL1       -0.2769
      2 C          64.3151   84.4666   13.3830 C.2     1  UNL1        0.2305
      3 O          65.2044   84.0989   14.5336 O.2     1  UNL1       -0.2747
      4 C          64.0849   83.4873   12.2703 C.3     1  UNL1        0.1328
      5 C          64.8267   83.6358   10.9751 C.3     1  UNL1        0.0816
      6 N          64.5964   82.6566    9.8624 N.3     1  UNL1       -0.2968
      7 C          63.6243   81.5289   10.0450 C.3     1  UNL1        0.0726
      8 C          62.8825   81.3804   11.3402 C.3     1  UNL1        0.0619
      9 C          63.1128   82.3596   12.4529 C.3     1  UNL1        0.1625
     10 O          62.1407   81.2319   12.6354 O.2     1  UNL1       -0.4749
     11 C          61.3989   81.0834   13.9307 C.2     1  UNL1        0.1723
     12 C          61.6292   82.0627   15.0434 C.2     1  UNL1        0.0399
     13 C          62.6013   83.1904   14.8608 C.ar    1  UNL1        0.0024
     14 C          62.8315   84.1696   15.9736 C.ar    1  UNL1       -0.0001
     15 C          63.8036   85.2973   15.7910 C.ar    1  UNL1       -0.0000
     16 C          64.5454   85.4458   14.4957 C.ar    1  UNL1       -0.0002
     17 C          64.3151   84.4666   13.3830 C.ar    1  UNL1       -0.0009
     18 C          63.3431   83.3389   13.5656 C.ar    1  UNL1        0.0142
     19 H          65.5003   82.2347    9.6498 H       1  UNL1        0.1233
     20 C          62.7667   86.1812   12.1944 C.3     1  UNL1        0.0758
     21 C          61.5512   85.9173   11.3561 C.3     1  UNL1        0.0215
     22 C          62.4421   87.0819   11.0398 C.3     1  UNL1        0.0215
     23 C          63.8863   86.7927   14.4578 C.3     1  UNL1        0.1201
     24 C          63.7096   90.2437   12.5058 C.ar    1  UNL1       -0.0194
     25 C          63.7875   88.7701   12.7754 C.ar    1  UNL1       -0.0067
     26 C          63.8085   88.2663   14.1882 C.ar    1  UNL1        0.0004
     27 C          63.7516   89.2359   15.3312 C.ar    1  UNL1        0.0343
     28 C          63.6738   90.7094   15.0616 C.ar    1  UNL1        0.1381
     29 C          63.6528   91.2133   13.6489 C.ar    1  UNL1        0.0326
     30 C          63.6886   90.7476   11.0932 C.3     1  UNL1        0.0290
     31 C          64.2847   92.0843   10.7648 C.3     1  UNL1        0.0367
     32 C          65.7238   92.3625   11.0836 C.3     1  UNL1        0.1426
     33 C          68.0183   92.1737    9.8797 C.3     1  UNL1        0.1741
     34 O          66.6611   92.8016    9.9980 O.3     1  UNL1       -0.3511
     35 O          63.6170   91.6790   16.2047 O.3     1  UNL1       -0.4728
     36 C          64.8758   92.3234   16.7048 C.3     1  UNL1        0.2373
     37 C          66.0725   92.4284   15.8067 C.3     1  UNL1        0.1894
     38 O          67.2038   93.3446   16.1686 O.3     1  UNL1       -0.3471
     39 C          68.6149   92.9630   15.8323 C.3     1  UNL1        0.1743
@<TRIPOS>BOND
     1    33    34    1
     2    34    32    1
     3    32    31    1
     4    31    30    1
     5    30    24    1
     6    24    25   ar
     7    25    26   ar
     8    26    23    1
     9    23     1    1
    10     1     2   am
    11     2     3    2
    12     4     2    1
    13     4     5    1
    14     5     6    1
    15     6     7    1
    16     7     8    1
    17     9     8    1
    18     9    10    1
    19    10    11    1
    20    11    12    2
    21    12    13    1
    22    13    14   ar
    23    14    15   ar
    24    15    16   ar
    25    16    17   ar
    26    17    18   ar
    27     1    20    1
    28    20    21    1
    29    21    22    1
    30    26    27   ar
    31    27    28   ar
    32    28    35    1
    33    35    36    1
    34    36    37    1
    35    37    38    1
    36    38    39    1
    37    28    29   ar
    38    29    24   ar
    39     9     4    1
    40    18    13   ar
    41    22    20    1
    42    18     9    1
    43     6    19    1
@<TRIPOS>MOLECULE
*****
 39 43 0 0 0
SMALL
GASTEIGER

@<TRIPOS>ATOM
      1 N          62.9160   86.7784   12.6131 N.am    1  UNL1       -0.2769
      2 C          62.2469   85.5085   12.1777 C.2     1  UNL1        0.2305
      3 O          61.2885   85.5232   11.0239 O.2     1  UNL1       -0.2747
      4 C          62.5361   84.2239   12.8962 C.3     1  UNL1        0.1328
      5 C          62.1696   84.0748   14.3430 C.3     1  UNL1        0.0816
      6 N          62.4589   82.7903   15.0614 N.3     1  UNL1       -0.2968
      7 C          63.1146   81.6547   14.3330 C.3     1  UNL1        0.0726
      8 C          63.4811   81.8038   12.8861 C.3     1  UNL1        0.0619
      9 C          63.1918   83.0884   12.1677 C.3     1  UNL1        0.1625
     10 O          63.8475   81.9529   11.4393 O.2     1  UNL1       -0.4749
     11 C          64.2140   82.1020    9.9923 C.2     1  UNL1        0.1723
     12 C          63.9248   83.3866    9.2739 C.2     1  UNL1        0.0399
     13 C          63.2691   84.5221   10.0024 C.ar    1  UNL1        0.0024
     14 C          62.9798   85.8067    9.2839 C.ar    1  UNL1       -0.0001
     15 C          62.3241   86.9422   10.0124 C.ar    1  UNL1       -0.0000
     16 C          61.9576   86.7931   11.4593 C.ar    1  UNL1       -0.0002
     17 C          62.2469   85.5085   12.1777 C.ar    1  UNL1       -0.0009
     18 C          62.9026   84.3730   11.4492 C.ar    1  UNL1        0.0142
     19 H          61.5663   82.4403   15.4098 H       1  UNL1        0.1233
     20 C          63.8745   86.7637   13.7669 C.3     1  UNL1        0.0758
     21 C          64.3022   87.2843   15.1071 C.3     1  UNL1        0.0215
     22 C          65.1067   86.2176   14.4252 C.3     1  UNL1        0.0215
     23 C          62.6269   88.0630   11.8946 C.3     1  UNL1        0.1201
     24 C          64.4304   91.5919   11.6838 C.ar    1  UNL1       -0.0194
     25 C          63.7351   90.3286   11.2708 C.ar    1  UNL1       -0.0067
     26 C          63.3222   89.3263   12.3077 C.ar    1  UNL1        0.0004
     27 C          63.6047   89.5873   13.7575 C.ar    1  UNL1        0.0343
     28 C          64.3001   90.8506   14.1705 C.ar    1  UNL1        0.1381
     29 C          64.7129   91.8529   13.1337 C.ar    1  UNL1        0.0326
     30 C          64.8432   92.5942   10.6470 C.3     1  UNL1        0.0290
     31 C          65.9530   93.5604   10.9380 C.3     1  UNL1        0.0367
     32 C          66.7408   94.1594    9.8107 C.3     1  UNL1        0.1426
     33 C          68.6924   92.5065    9.3534 C.3     1  UNL1        0.1741
     34 O          68.2110   93.8855    9.6947 O.3     1  UNL1       -0.3511
     35 O          64.5826   91.1116   15.6204 O.3     1  UNL1       -0.4728
     36 C          65.1810   92.4202   16.0442 C.3     1  UNL1        0.2373
     37 C          66.6545   92.6557   15.8910 C.3     1  UNL1        0.1894
     38 O          67.5183   91.6107   15.2492 O.3     1  UNL1       -0.3471
     39 C          68.2131   91.9047   13.9528 C.3     1  UNL1        0.1743
@<TRIPOS>BOND
     1    33    34    1
     2    34    32    1
     3    32    31    1
     4    31    30    1
     5    30    24    1
     6    24    25   ar
     7    25    26   ar
     8    26    23    1
     9    23     1    1
    10     1     2   am
    11     2     3    2
    12     4     2    1
    13     4     5    1
    14     5     6    1
    15     6     7    1
    16     7     8    1
    17     9     8    1
    18     9    10    1
    19    10    11    1
    20    11    12    2
    21    12    13    1
    22    13    14   ar
    23    14    15   ar
    24    15    16   ar
    25    16    17   ar
    26    17    18   ar
    27     1    20    1
    28    20    21    1
    29    21    22    1
    30    26    27   ar
    31    27    28   ar
    32    28    35    1
    33    35    36    1
    34    36    37    1
    35    37    38    1
    36    38    39    1
    37    28    29   ar
    38    29    24   ar
    39     9     4    1
    40    18    13   ar
    41    22    20    1
    42    18     9    1
    43     6    19    1
@<TRIPOS>MOLECULE
*****
 39 43 0 0 0
SMALL
GASTEIGER

@<TRIPOS>ATOM
      1 N          63.5081   85.7547   13.1341 N.am    1  UNL1       -0.2769
      2 C          64.1839   84.4211   13.2556 C.2     1  UNL1        0.2305
      3 O          65.0344   84.1176   14.4533 O.2     1  UNL1       -0.2747
      4 C          64.0093   83.3910   12.1793 C.3     1  UNL1        0.1328
      5 C          64.7640   83.5187   10.8893 C.3     1  UNL1        0.0816
      6 N          64.5893   82.4885    9.8131 N.3     1  UNL1       -0.2968
      7 C          63.6599   81.3307   10.0268 C.3     1  UNL1        0.0726
      8 C          62.9052   81.2030   11.3168 C.3     1  UNL1        0.0619
      9 C          63.0799   82.2332   12.3930 C.3     1  UNL1        0.1625
     10 O          62.1504   81.0754   12.6068 O.2     1  UNL1       -0.4749
     11 C          61.3957   80.9477   13.8968 C.2     1  UNL1        0.1723
     12 C          61.5704   81.9778   14.9730 C.2     1  UNL1        0.0399
     13 C          62.4998   83.1356   14.7593 C.ar    1  UNL1        0.0024
     14 C          62.6745   84.1658   15.8356 C.ar    1  UNL1       -0.0001
     15 C          63.6039   85.3236   15.6218 C.ar    1  UNL1       -0.0000
     16 C          64.3586   85.4512   14.3318 C.ar    1  UNL1       -0.0002
     17 C          64.1839   84.4211   13.2556 C.ar    1  UNL1       -0.0009
     18 C          63.2545   83.2633   13.4693 C.ar    1  UNL1        0.0142
     19 H          65.5123   82.0952    9.6294 H       1  UNL1        0.1233
     20 C          62.6577   86.0582   11.9362 C.3     1  UNL1        0.0758
     21 C          62.5342   86.5149   10.5128 C.3     1  UNL1        0.0215
     22 C          61.3082   86.1271   11.2851 C.3     1  UNL1        0.0215
     23 C          63.6828   86.7849   14.2103 C.3     1  UNL1        0.1201
     24 C          64.9077   90.5568   14.3598 C.ar    1  UNL1       -0.0194
     25 C          64.7074   89.1160   14.7260 C.ar    1  UNL1       -0.0067
     26 C          63.8831   88.2256   13.8441 C.ar    1  UNL1        0.0004
     27 C          63.2592   88.7760   12.5959 C.ar    1  UNL1        0.0343
     28 C          63.4595   90.2167   12.2297 C.ar    1  UNL1        0.1381
     29 C          64.2837   91.1071   13.1116 C.ar    1  UNL1        0.0326
     30 C          65.7319   91.4472   15.2417 C.3     1  UNL1        0.0290
     31 C          65.9414   92.8851   14.8697 C.3     1  UNL1        0.0367
     32 C          67.1093   93.2758   14.0132 C.3     1  UNL1        0.1426
     33 C          68.9924   93.3607   15.8009 C.3     1  UNL1        0.1741
     34 O          68.5044   92.9368   14.4474 O.3     1  UNL1       -0.3511
     35 O          62.8355   90.7670   10.9815 O.3     1  UNL1       -0.4728
     36 C          63.6429   91.6289   10.0567 C.3     1  UNL1        0.2373
     37 C          64.6524   92.5876   10.6149 C.3     1  UNL1        0.1894
     38 O          66.1175   92.3326   10.4186 O.3     1  UNL1       -0.3471
     39 C          67.0000   93.4140    9.8695 C.3     1  UNL1        0.1743
@<TRIPOS>BOND
     1    33    34    1
     2    34    32    1
     3    32    31    1
     4    31    30    1
     5    30    24    1
     6    24    25   ar
     7    25    26   ar
     8    26    23    1
     9    23     1    1
    10     1     2   am
    11     2     3    2
    12     4     2    1
    13     4     5    1
    14     5     6    1
    15     6     7    1
    16     7     8    1
    17     9     8    1
    18     9    10    1
    19    10    11    1
    20    11    12    2
    21    12    13    1
    22    13    14   ar
    23    14    15   ar
    24    15    16   ar
    25    16    17   ar
    26    17    18   ar
    27     1    20    1
    28    20    21    1
    29    21    22    1
    30    26    27   ar
    31    27    28   ar
    32    28    35    1
    33    35    36    1
    34    36    37    1
    35    37    38    1
    36    38    39    1
    37    28    29   ar
    38    29    24   ar
    39     9     4    1
    40    18    13   ar
    41    22    20    1
    42    18     9    1
    43     6    19    1
@<TRIPOS>MOLECULE
*****
 39 43 0 0 0
SMALL
GASTEIGER

@<TRIPOS>ATOM
      1 N          62.8539   86.8302   12.3914 N.am    1  UNL1       -0.2769
      2 C          62.1581   85.5523   12.0271 C.2     1  UNL1        0.2305
      3 O          61.1816   85.5281   10.8888 O.2     1  UNL1       -0.2747
      4 C          62.4389   84.2984   12.8012 C.3     1  UNL1        0.1328
      5 C          62.0186   84.1936   14.2372 C.3     1  UNL1        0.0816
      6 N          62.2994   82.9398   15.0112 N.3     1  UNL1       -0.2968
      7 C          63.0005   81.7908   14.3491 C.3     1  UNL1        0.0726
      8 C          63.4208   81.8956   12.9130 C.3     1  UNL1        0.0619
      9 C          63.1400   83.1494   12.1391 C.3     1  UNL1        0.1625
     10 O          63.8410   82.0005   11.4770 O.2     1  UNL1       -0.4749
     11 C          64.2613   82.1053   10.0408 C.2     1  UNL1        0.1723
     12 C          63.9805   83.3591    9.2668 C.2     1  UNL1        0.0399
     13 C          63.2794   84.5081    9.9289 C.ar    1  UNL1        0.0024
     14 C          62.9986   85.7619    9.1549 C.ar    1  UNL1       -0.0001
     15 C          62.2976   86.9109    9.8170 C.ar    1  UNL1       -0.0000
     16 C          61.8773   86.8061   11.2531 C.ar    1  UNL1       -0.0002
     17 C          62.1581   85.5523   12.0271 C.ar    1  UNL1       -0.0009
     18 C          62.8592   84.4033   11.3650 C.ar    1  UNL1        0.0142
     19 H          61.3995   82.5872   15.3372 H       1  UNL1        0.1233
     20 C          63.8305   86.8543   13.5297 C.3     1  UNL1        0.0758
     21 C          64.6668   87.6251   14.5077 C.3     1  UNL1        0.0215
     22 C          64.6855   86.1253   14.5234 C.3     1  UNL1        0.0215
     23 C          62.5731   88.0840   11.6174 C.3     1  UNL1        0.1201
     24 C          64.3730   91.6207   11.5691 C.ar    1  UNL1       -0.0194
     25 C          63.8101   90.3104   11.1042 C.ar    1  UNL1       -0.0067
     26 C          63.1361   89.3943   12.0823 C.ar    1  UNL1        0.0004
     27 C          63.0250   89.7886   13.5253 C.ar    1  UNL1        0.0343
     28 C          63.5879   91.0990   13.9902 C.ar    1  UNL1        0.1381
     29 C          64.2619   92.0150   13.0122 C.ar    1  UNL1        0.0326
     30 C          65.0470   92.5367   10.5911 C.3     1  UNL1        0.0290
     31 C          66.2410   93.3393   11.0155 C.3     1  UNL1        0.0367
     32 C          66.9302   94.2366   10.0306 C.3     1  UNL1        0.1426
     33 C          68.7937   92.5629    9.3409 C.3     1  UNL1        0.1741
     34 O          68.3518   93.9656    9.6361 O.3     1  UNL1       -0.3511
     35 O          63.4768   91.4933   15.4332 O.3     1  UNL1       -0.4728
     36 C          63.7530   90.4855   16.5094 C.3     1  UNL1        0.2373
     37 C          62.8326   89.3159   16.6957 C.3     1  UNL1        0.1894
     38 O          63.1679   88.2496   17.6960 O.3     1  UNL1       -0.3471
     39 C          62.6081   86.8673   17.5348 C.3     1  UNL1        0.1743
@<TRIPOS>BOND
     1    33    34    1
     2    34    32    1
     3    32    31    1
     4    31    30    1
     5    30    24    1
     6    24    25   ar
     7    25    26   ar
     8    26    23    1
     9    23     1    1
    10     1     2   am
    11     2     3    2
    12     4     2    1
    13     4     5    1
    14     5     6    1
    15     6     7    1
    16     7     8    1
    17     9     8    1
    18     9    10    1
    19    10    11    1
    20    11    12    2
    21    12    13    1
    22    13    14   ar
    23    14    15   ar
    24    15    16   ar
    25    16    17   ar
    26    17    18   ar
    27     1    20    1
    28    20    21    1
    29    21    22    1
    30    26    27   ar
    31    27    28   ar
    32    28    35    1
    33    35    36    1
    34    36    37    1
    35    37    38    1
    36    38    39    1
    37    28    29   ar
    38    29    24   ar
    39     9     4    1
    40    18    13   ar
    41    22    20    1
    42    18     9    1
    43     6    19    1
@<TRIPOS>MOLECULE
*****
 39 43 0 0 0
SMALL
GASTEIGER

@<TRIPOS>ATOM
      1 N          63.1647   89.4113   12.9035 N.am    1  UNL1       -0.2769
      2 C          63.4912   90.8729   12.8203 C.2     1  UNL1        0.2305
      3 O          62.8465   91.7268   11.7690 O.2     1  UNL1       -0.2747
      4 C          64.4624   91.4808   13.7885 C.3     1  UNL1        0.1328
      5 C          64.3063   91.2367   15.2602 C.3     1  UNL1        0.0816
      6 N          65.2775   91.8445   16.2284 N.3     1  UNL1       -0.2968
      7 C          66.4047   92.6965   15.7248 C.3     1  UNL1        0.0726
      8 C          66.5607   92.9406   14.2531 C.3     1  UNL1        0.0619
      9 C          65.5896   92.3327   13.2850 C.3     1  UNL1        0.1625
     10 O          66.7168   93.1847   12.7814 O.2     1  UNL1       -0.4749
     11 C          66.8728   93.4288   11.3096 C.2     1  UNL1        0.1723
     12 C          65.9017   92.8210   10.3414 C.2     1  UNL1        0.0399
     13 C          64.7744   91.9690   10.8450 C.ar    1  UNL1        0.0024
     14 C          63.8033   91.3612    9.8768 C.ar    1  UNL1       -0.0001
     15 C          62.6761   90.5092   10.3803 C.ar    1  UNL1       -0.0000
     16 C          62.5200   90.2651   11.8521 C.ar    1  UNL1       -0.0002
     17 C          63.4912   90.8729   12.8203 C.ar    1  UNL1       -0.0009
     18 C          64.6184   91.7249   12.3167 C.ar    1  UNL1        0.0142
     19 H          65.6996   91.0732   16.7454 H       1  UNL1        0.1233
     20 C          63.8094   88.5574   13.9549 C.3     1  UNL1        0.0758
     21 C          63.9370   88.1379   15.3893 C.3     1  UNL1        0.0215
     22 C          64.7986   87.4981   14.3414 C.3     1  UNL1        0.0215
     23 C          62.1936   88.8034   11.9353 C.3     1  UNL1        0.1201
     24 C          62.5385   85.6960    9.4909 C.ar    1  UNL1       -0.0194
     25 C          62.3319   87.0992    9.9791 C.ar    1  UNL1       -0.0067
     26 C          62.4002   87.4002   11.4471 C.ar    1  UNL1        0.0004
     27 C          62.6751   86.2981   12.4267 C.ar    1  UNL1        0.0343
     28 C          62.8817   84.8949   11.9384 C.ar    1  UNL1        0.1381
     29 C          62.8134   84.5938   10.4706 C.ar    1  UNL1        0.0326
     30 C          62.4701   85.3949    8.0230 C.3     1  UNL1        0.0290
     31 C          61.1948   85.6271    7.2684 C.3     1  UNL1        0.0367
     32 C          59.9492   86.0232    8.0045 C.3     1  UNL1        0.1426
     33 C          59.4068   88.5058    7.4637 C.3     1  UNL1        0.1741
     34 O          59.0294   87.0547    7.4214 O.3     1  UNL1       -0.3511
     35 O          63.1566   83.7928   12.9181 O.3     1  UNL1       -0.4728
     36 C          63.5311   82.4267   12.4245 C.3     1  UNL1        0.2373
     37 C          63.6904   81.2956   13.3967 C.3     1  UNL1        0.1894
     38 O          62.6460   81.0562   14.4465 O.3     1  UNL1       -0.3471
     39 C          61.1932   81.0584   14.0734 C.3     1  UNL1        0.1743
@<TRIPOS>BOND
     1    33    34    1
     2    34    32    1
     3    32    31    1
     4    31    30    1
     5    30    24    1
     6    24    25   ar
     7    25    26   ar
     8    26    23    1
     9    23     1    1
    10     1     2   am
    11     2     3    2
    12     4     2    1
    13     4     5    1
    14     5     6    1
    15     6     7    1
    16     7     8    1
    17     9     8    1
    18     9    10    1
    19    10    11    1
    20    11    12    2
    21    12    13    1
    22    13    14   ar
    23    14    15   ar
    24    15    16   ar
    25    16    17   ar
    26    17    18   ar
    27     1    20    1
    28    20    21    1
    29    21    22    1
    30    26    27   ar
    31    27    28   ar
    32    28    35    1
    33    35    36    1
    34    36    37    1
    35    37    38    1
    36    38    39    1
    37    28    29   ar
    38    29    24   ar
    39     9     4    1
    40    18    13   ar
    41    22    20    1
    42    18     9    1
    43     6    19    1
