@<TRIPOS>MOLECULE
*****
 44 47 0 0 0
SMALL
GASTEIGER

@<TRIPOS>ATOM
      1 C          59.8446   90.1904    6.1509 C.2     1  UNL1        0.2672
      2 O          58.4929   90.3447    5.5190 O.2     1  UNL1       -0.2682
      3 N          61.0471   90.8201    5.5127 N.am    1  UNL1       -0.2791
      4 H          61.9343   90.7188    5.9274 H       1  UNL1        0.1552
      5 C          60.2917   87.8380    9.9610 C.ar    1  UNL1        0.1575
      6 C          59.6054   87.2243    8.7767 C.ar    1  UNL1        0.0402
      7 C          59.4563   88.0084    7.5067 C.ar    1  UNL1        0.0269
      8 C          59.9936   89.4063    7.4209 C.ar    1  UNL1        0.1350
      9 N          60.6799   90.0200    8.6051 N.ar    1  UNL1       -0.2361
     10 C          60.8290   89.2358    9.8752 C.ar    1  UNL1        0.1357
     11 O          60.4407   87.0539   11.2310 O.3     1  UNL1       -0.4775
     12 N          63.5916   83.8564   11.5446 N.3     1  UNL1       -0.2774
     13 C          62.9296   84.3811   12.7840 C.3     1  UNL1        0.0488
     14 C          63.8624   83.3764   13.3925 C.3     1  UNL1        0.0161
     15 C          62.5915   84.5569   14.2348 C.3     1  UNL1        0.0161
     16 C          61.8793   85.4469   12.6795 C.3     1  UNL1        0.0582
     17 C          61.4910   85.9881   11.3355 C.3     1  UNL1        0.1686
     18 C          62.1531   85.4634   10.0960 C.3     1  UNL1        0.0582
     19 C          63.2034   84.3976   10.2005 C.3     1  UNL1        0.0488
     20 C          63.1766   84.5920    8.7134 C.3     1  UNL1        0.0161
     21 C          64.2444   83.3993    9.7885 C.3     1  UNL1        0.0161
     22 C          64.2478   81.3771   11.9599 C.3     1  UNL1        0.0188
     23 C          64.6419   82.7906   11.6491 C.3     1  UNL1        0.0720
     24 C          60.8980   91.6042    4.2427 C.ar    1  UNL1        0.0507
     25 C          59.6271   92.3519    3.9677 C.ar    1  UNL1        0.0160
     26 C          59.4780   93.1360    2.6977 C.ar    1  UNL1        0.0160
     27 C          60.5998   93.1724    1.7027 C.ar    1  UNL1        0.0517
     28 C          61.8707   92.4247    1.9776 C.ar    1  UNL1        0.0160
     29 C          62.0199   91.6405    3.2476 C.ar    1  UNL1        0.0160
     30 N          60.4507   93.9565    0.4327 N.am    1  UNL1       -0.2680
     31 C          59.2836   93.7005   -0.4742 C.2     1  UNL1        0.3093
     32 O          58.2656   92.6604   -0.1110 O.2     1  UNL1       -0.2521
     33 N          59.1345   94.4846   -1.7442 N.am    1  UNL1       -0.2508
     34 H          61.1188   94.6391    0.1943 H       1  UNL1        0.1564
     35 H          59.8026   95.1672   -1.9826 H       1  UNL1        0.1579
     36 C          57.9674   94.2286   -2.6511 C.ar    1  UNL1        0.1771
     37 C          57.8176   93.0676   -3.5890 C.ar    1  UNL1        0.0734
     38 C          56.5028   93.2101   -4.2968 C.ar    1  UNL1        0.1549
     39 O          55.8400   94.4593   -3.7964 O.2     1  UNL1       -0.3565
     40 N          56.7452   95.0887   -2.7792 N.ar    1  UNL1       -0.0621
     41 C          55.9482   92.2688   -5.3246 C.3     1  UNL1        0.0539
     42 C          55.8789   93.3923   -6.3160 C.3     1  UNL1        0.0076
     43 C          56.0175   91.1453   -4.3331 C.3     1  UNL1        0.0076
     44 C          55.3936   91.3276   -6.3523 C.3     1  UNL1        0.0076
@<TRIPOS>BOND
     1    22    23    1
     2    23    12    1
     3    12    13    1
     4    13    14    1
     5    13    15    1
     6    13    16    1
     7    16    17    1
     8    17    11    1
     9    11     5    1
    10     5     6   ar
    11     6     7   ar
    12     7     8   ar
    13     8     1    1
    14     1     2    2
    15     1     3   am
    16     3    24    1
    17    24    25   ar
    18    25    26   ar
    19    26    27   ar
    20    27    30    1
    21    30    31   am
    22    31    32    2
    23    31    33   am
    24    33    36    1
    25    36    37   ar
    26    37    38   ar
    27    38    41    1
    28    41    42    1
    29    41    43    1
    30    41    44    1
    31    38    39   ar
    32    39    40   ar
    33    27    28   ar
    34    28    29   ar
    35     8     9   ar
    36     9    10   ar
    37    17    18    1
    38    18    19    1
    39    19    20    1
    40    19    21    1
    41    19    12    1
    42    10     5   ar
    43    29    24   ar
    44    40    36   ar
    45     3     4    1
    46    30    34    1
    47    33    35    1
@<TRIPOS>MOLECULE
*****
 44 47 0 0 0
SMALL
GASTEIGER

@<TRIPOS>ATOM
      1 C          59.7942   90.2856    6.1103 C.2     1  UNL1        0.2672
      2 O          58.4373   90.4842    5.5024 O.2     1  UNL1       -0.2682
      3 N          61.0048   90.8784    5.4523 N.am    1  UNL1       -0.2791
      4 H          61.8953   90.7480    5.8513 H       1  UNL1        0.1552
      5 C          60.2327   87.9114    9.9078 C.ar    1  UNL1        0.1575
      6 C          59.5381   87.3090    8.7226 C.ar    1  UNL1        0.0402
      7 C          59.3919   88.1004    7.4568 C.ar    1  UNL1        0.0269
      8 C          59.9403   89.4942    7.3762 C.ar    1  UNL1        0.1350
      9 N          60.6349   90.0967    8.5613 N.ar    1  UNL1       -0.2361
     10 C          60.7811   89.3053    9.8272 C.ar    1  UNL1        0.1357
     11 O          60.3788   87.1201   11.1736 O.3     1  UNL1       -0.4775
     12 N          63.5479   83.9405   11.4862 N.3     1  UNL1       -0.2774
     13 C          63.1465   84.4698   10.1413 C.3     1  UNL1        0.0488
     14 C          64.1892   83.4736    9.7285 C.3     1  UNL1        0.0161
     15 C          63.1073   84.6531    8.6531 C.3     1  UNL1        0.0161
     16 C          62.0902   85.5296   10.0371 C.3     1  UNL1        0.0582
     17 C          61.4352   86.0602   11.2778 C.3     1  UNL1        0.1686
     18 C          61.8366   85.5310   12.6227 C.3     1  UNL1        0.0582
     19 C          62.8929   84.4711   12.7269 C.3     1  UNL1        0.0488
     20 C          62.5652   84.6560   14.1789 C.3     1  UNL1        0.0161
     21 C          63.8354   83.4755   13.3354 C.3     1  UNL1        0.0161
     22 C          64.2111   81.4468   11.7888 C.3     1  UNL1        0.0188
     23 C          64.6042   82.8807   11.5903 C.3     1  UNL1        0.0720
     24 C          60.8586   91.6697    4.1865 C.ar    1  UNL1        0.0507
     25 C          61.9970   91.7437    3.2124 C.ar    1  UNL1        0.0160
     26 C          61.8507   92.5350    1.9466 C.ar    1  UNL1        0.0160
     27 C          60.5661   93.2524    1.6547 C.ar    1  UNL1        0.0517
     28 C          59.4278   93.1785    2.6287 C.ar    1  UNL1        0.0160
     29 C          59.5740   92.3871    3.8946 C.ar    1  UNL1        0.0160
     30 N          60.4199   94.0438    0.3889 N.am    1  UNL1       -0.2680
     31 C          59.2645   93.7807   -0.5308 C.2     1  UNL1        0.3093
     32 O          58.2554   92.7262   -0.1847 O.2     1  UNL1       -0.2521
     33 N          59.1183   94.5720   -1.7967 N.am    1  UNL1       -0.2508
     34 H          61.0823   94.7358    0.1618 H       1  UNL1        0.1564
     35 H          59.7806   95.2641   -2.0238 H       1  UNL1        0.1579
     36 C          57.9629   94.3089   -2.7164 C.ar    1  UNL1        0.1771
     37 C          57.8366   93.1542   -3.6655 C.ar    1  UNL1        0.0734
     38 C          56.5266   93.2860   -4.3842 C.ar    1  UNL1        0.1549
     39 O          55.8432   94.5223   -3.8793 O.2     1  UNL1       -0.3565
     40 N          56.7310   95.1545   -2.8485 N.ar    1  UNL1       -0.0621
     41 C          55.9936   92.3466   -5.4250 C.3     1  UNL1        0.0539
     42 C          56.0117   93.4555   -6.4350 C.3     1  UNL1        0.0076
     43 C          55.9754   91.2378   -4.4150 C.3     1  UNL1        0.0076
     44 C          55.4605   91.4072   -6.4658 C.3     1  UNL1        0.0076
@<TRIPOS>BOND
     1    22    23    1
     2    23    12    1
     3    12    13    1
     4    13    14    1
     5    13    15    1
     6    13    16    1
     7    16    17    1
     8    17    11    1
     9    11     5    1
    10     5     6   ar
    11     6     7   ar
    12     7     8   ar
    13     8     1    1
    14     1     2    2
    15     1     3   am
    16     3    24    1
    17    24    25   ar
    18    25    26   ar
    19    26    27   ar
    20    27    30    1
    21    30    31   am
    22    31    32    2
    23    31    33   am
    24    33    36    1
    25    36    37   ar
    26    37    38   ar
    27    38    41    1
    28    41    42    1
    29    41    43    1
    30    41    44    1
    31    38    39   ar
    32    39    40   ar
    33    27    28   ar
    34    28    29   ar
    35     8     9   ar
    36     9    10   ar
    37    17    18    1
    38    18    19    1
    39    19    20    1
    40    19    21    1
    41    19    12    1
    42    10     5   ar
    43    29    24   ar
    44    40    36   ar
    45     3     4    1
    46    30    34    1
    47    33    35    1
@<TRIPOS>MOLECULE
*****
 44 47 0 0 0
SMALL
GASTEIGER

@<TRIPOS>ATOM
      1 C          59.7604   90.2537    6.0198 C.2     1  UNL1        0.2672
      2 O          58.4036   90.4404    5.4081 O.2     1  UNL1       -0.2682
      3 N          60.9684   90.8520    5.3620 N.am    1  UNL1       -0.2791
      4 H          61.8590   90.7294    5.7634 H       1  UNL1        0.1552
      5 C          60.2068   87.8987    9.8284 C.ar    1  UNL1        0.1575
      6 C          59.5199   87.2861    8.6438 C.ar    1  UNL1        0.0402
      7 C          59.3711   88.0711    7.3744 C.ar    1  UNL1        0.0269
      8 C          59.9092   89.4687    7.2893 C.ar    1  UNL1        0.1350
      9 N          60.5961   90.0813    8.4738 N.ar    1  UNL1       -0.2361
     10 C          60.7448   89.2963    9.7433 C.ar    1  UNL1        0.1357
     11 O          60.3555   87.1137   11.0978 O.3     1  UNL1       -0.4775
     12 N          63.5637   83.9768   11.4408 N.3     1  UNL1       -0.2774
     13 C          62.8935   84.5023   12.6755 C.3     1  UNL1        0.0488
     14 C          63.8448   83.5208   13.2932 C.3     1  UNL1        0.0161
     15 C          62.5536   84.6868   14.1248 C.3     1  UNL1        0.0161
     16 C          61.8241   85.5479   12.5612 C.3     1  UNL1        0.0582
     17 C          61.4249   86.0681   11.2121 C.3     1  UNL1        0.1686
     18 C          62.0952   85.5426    9.9774 C.3     1  UNL1        0.0582
     19 C          63.1646   84.4970   10.0917 C.3     1  UNL1        0.0488
     20 C          63.1330   84.6756    8.6027 C.3     1  UNL1        0.0161
     21 C          64.2230   83.5135    9.6888 C.3     1  UNL1        0.0161
     22 C          64.2603   81.5034   11.8239 C.3     1  UNL1        0.0188
     23 C          64.6331   82.9312   11.5551 C.3     1  UNL1        0.0720
     24 C          60.8196   91.6369    4.0925 C.ar    1  UNL1        0.0507
     25 C          61.9541   91.7016    3.1133 C.ar    1  UNL1        0.0160
     26 C          61.8053   92.4866    1.8438 C.ar    1  UNL1        0.0160
     27 C          60.5220   93.2069    1.5534 C.ar    1  UNL1        0.0517
     28 C          59.3875   93.1422    2.5325 C.ar    1  UNL1        0.0160
     29 C          59.5363   92.3572    3.8021 C.ar    1  UNL1        0.0160
     30 N          60.3732   93.9918    0.2839 N.am    1  UNL1       -0.2680
     31 C          59.0817   93.9481   -0.4779 C.2     1  UNL1        0.3093
     32 O          57.9392   93.1193    0.0298 O.2     1  UNL1       -0.2521
     33 N          58.9329   94.7330   -1.7474 N.am    1  UNL1       -0.2508
     34 H          61.1231   94.5358   -0.0493 H       1  UNL1        0.1564
     35 H          59.6828   95.2770   -2.0806 H       1  UNL1        0.1579
     36 C          57.6415   94.6893   -2.5093 C.ar    1  UNL1        0.1771
     37 C          56.4222   95.5157   -2.2259 C.ar    1  UNL1        0.0734
     38 C          55.3698   95.1486   -3.2297 C.ar    1  UNL1        0.1549
     39 O          55.9387   94.0952   -4.1336 O.2     1  UNL1       -0.3565
     40 N          57.3428   93.8114   -3.6883 N.ar    1  UNL1       -0.0621
     41 C          53.9907   95.7323   -3.3149 C.3     1  UNL1        0.0539
     42 C          53.8116   95.5238   -1.8402 C.3     1  UNL1        0.0076
     43 C          54.1698   95.9406   -4.7895 C.3     1  UNL1        0.0076
     44 C          52.6116   96.3159   -3.4000 C.3     1  UNL1        0.0076
@<TRIPOS>BOND
     1    22    23    1
     2    23    12    1
     3    12    13    1
     4    13    14    1
     5    13    15    1
     6    13    16    1
     7    16    17    1
     8    17    11    1
     9    11     5    1
    10     5     6   ar
    11     6     7   ar
    12     7     8   ar
    13     8     1    1
    14     1     2    2
    15     1     3   am
    16     3    24    1
    17    24    25   ar
    18    25    26   ar
    19    26    27   ar
    20    27    30    1
    21    30    31   am
    22    31    32    2
    23    31    33   am
    24    33    36    1
    25    36    37   ar
    26    37    38   ar
    27    38    41    1
    28    41    42    1
    29    41    43    1
    30    41    44    1
    31    38    39   ar
    32    39    40   ar
    33    27    28   ar
    34    28    29   ar
    35     8     9   ar
    36     9    10   ar
    37    17    18    1
    38    18    19    1
    39    19    20    1
    40    19    21    1
    41    19    12    1
    42    10     5   ar
    43    29    24   ar
    44    40    36   ar
    45     3     4    1
    46    30    34    1
    47    33    35    1
@<TRIPOS>MOLECULE
*****
 44 47 0 0 0
SMALL
GASTEIGER

@<TRIPOS>ATOM
      1 C          59.8398   90.0859    6.2038 C.2     1  UNL1        0.2672
      2 O          58.4961   90.1469    5.5399 O.2     1  UNL1       -0.2682
      3 N          61.0155   90.7800    5.5826 N.am    1  UNL1       -0.2791
      4 H          61.8974   90.7400    6.0184 H       1  UNL1        0.1552
      5 C          60.3436   87.8205   10.0593 C.ar    1  UNL1        0.1575
      6 C          59.6536   87.1746    8.8945 C.ar    1  UNL1        0.0402
      7 C          59.4857   87.9297    7.6094 C.ar    1  UNL1        0.0269
      8 C          60.0077   89.3308    7.4890 C.ar    1  UNL1        0.1350
      9 N          60.6977   89.9767    8.6538 N.ar    1  UNL1       -0.2361
     10 C          60.8657   89.2216    9.9389 C.ar    1  UNL1        0.1357
     11 O          60.5115   87.0654   11.3444 O.3     1  UNL1       -0.4775
     12 N          63.6279   83.8351   11.6653 N.3     1  UNL1       -0.2774
     13 C          63.2399   84.3718   10.3195 C.3     1  UNL1        0.0488
     14 C          64.2679   83.3593    9.9095 C.3     1  UNL1        0.0161
     15 C          63.2088   84.5569    8.8313 C.3     1  UNL1        0.0161
     16 C          62.2011   85.4485   10.2125 C.3     1  UNL1        0.0582
     17 C          61.5503   85.9886   11.4514 C.3     1  UNL1        0.1686
     18 C          61.9384   85.4519   12.7972 C.3     1  UNL1        0.0582
     19 C          62.9772   84.3751   12.9042 C.3     1  UNL1        0.0488
     20 C          62.6474   84.5640   14.3552 C.3     1  UNL1        0.0161
     21 C          63.9014   83.3640   13.5152 C.3     1  UNL1        0.0161
     22 C          64.2629   81.3598   12.1343 C.3     1  UNL1        0.0188
     23 C          64.6667   82.7583   11.7723 C.3     1  UNL1        0.0720
     24 C          60.8475   91.5351    4.2975 C.ar    1  UNL1        0.0507
     25 C          59.5557   92.2391    4.0046 C.ar    1  UNL1        0.0160
     26 C          59.3877   92.9942    2.7195 C.ar    1  UNL1        0.0160
     27 C          60.5115   93.0453    1.7272 C.ar    1  UNL1        0.0517
     28 C          61.8033   92.3414    2.0201 C.ar    1  UNL1        0.0160
     29 C          61.9713   91.5862    3.3053 C.ar    1  UNL1        0.0160
     30 N          60.3435   93.8004    0.4421 N.am    1  UNL1       -0.2680
     31 C          61.5131   93.9822   -0.4794 C.2     1  UNL1        0.3093
     32 O          62.8507   93.4089   -0.1157 O.2     1  UNL1       -0.2521
     33 N          61.3452   94.7373   -1.7645 N.am    1  UNL1       -0.2508
     34 H          59.4656   94.1767    0.2034 H       1  UNL1        0.1564
     35 H          60.4673   95.1136   -2.0032 H       1  UNL1        0.1579
     36 C          62.5148   94.9191   -2.6860 C.ar    1  UNL1        0.1771
     37 C          63.0157   93.9168   -3.6832 C.ar    1  UNL1        0.0734
     38 C          64.1993   94.5134   -4.3855 C.ar    1  UNL1        0.1549
     39 O          64.4298   95.8845   -3.8223 O.2     1  UNL1       -0.3565
     40 N          63.3887   96.1352   -2.7719 N.ar    1  UNL1       -0.0621
     41 C          65.0100   93.8547   -5.4620 C.3     1  UNL1        0.0539
     42 C          64.6990   92.5105   -4.8735 C.3     1  UNL1        0.0076
     43 C          65.3209   95.1990   -6.0505 C.3     1  UNL1        0.0076
     44 C          65.8206   93.1960   -6.5384 C.3     1  UNL1        0.0076
@<TRIPOS>BOND
     1    22    23    1
     2    23    12    1
     3    12    13    1
     4    13    14    1
     5    13    15    1
     6    13    16    1
     7    16    17    1
     8    17    11    1
     9    11     5    1
    10     5     6   ar
    11     6     7   ar
    12     7     8   ar
    13     8     1    1
    14     1     2    2
    15     1     3   am
    16     3    24    1
    17    24    25   ar
    18    25    26   ar
    19    26    27   ar
    20    27    30    1
    21    30    31   am
    22    31    32    2
    23    31    33   am
    24    33    36    1
    25    36    37   ar
    26    37    38   ar
    27    38    41    1
    28    41    42    1
    29    41    43    1
    30    41    44    1
    31    38    39   ar
    32    39    40   ar
    33    27    28   ar
    34    28    29   ar
    35     8     9   ar
    36     9    10   ar
    37    17    18    1
    38    18    19    1
    39    19    20    1
    40    19    21    1
    41    19    12    1
    42    10     5   ar
    43    29    24   ar
    44    40    36   ar
    45     3     4    1
    46    30    34    1
    47    33    35    1
@<TRIPOS>MOLECULE
*****
 44 47 0 0 0
SMALL
GASTEIGER

@<TRIPOS>ATOM
      1 C          59.8343   90.1130    6.1962 C.2     1  UNL1        0.2672
      2 O          58.4869   90.1979    5.5424 O.2     1  UNL1       -0.2682
      3 N          61.0170   90.7878    5.5671 N.am    1  UNL1       -0.2791
      4 H          61.9013   90.7322    5.9962 H       1  UNL1        0.1552
      5 C          60.3281   87.8340   10.0449 C.ar    1  UNL1        0.1575
      6 C          59.6471   87.1899    8.8739 C.ar    1  UNL1        0.0402
      7 C          59.4825   87.9495    7.5910 C.ar    1  UNL1        0.0269
      8 C          59.9989   89.3534    7.4791 C.ar    1  UNL1        0.1350
      9 N          60.6799   89.9976    8.6501 N.ar    1  UNL1       -0.2361
     10 C          60.8445   89.2379    9.9330 C.ar    1  UNL1        0.1357
     11 O          60.4927   87.0744   11.3278 O.3     1  UNL1       -0.4775
     12 N          63.5724   83.8071   11.6287 N.3     1  UNL1       -0.2774
     13 C          62.9244   84.3437   12.8706 C.3     1  UNL1        0.0488
     14 C          63.8358   83.3171   13.4751 C.3     1  UNL1        0.0161
     15 C          62.5929   84.5238   14.3223 C.3     1  UNL1        0.0161
     16 C          61.8978   85.4328   12.7702 C.3     1  UNL1        0.0582
     17 C          61.5193   85.9853   11.4281 C.3     1  UNL1        0.1686
     18 C          62.1672   85.4487   10.1863 C.3     1  UNL1        0.0582
     19 C          63.1938   84.3596   10.2866 C.3     1  UNL1        0.0488
     20 C          63.1687   84.5578    8.8000 C.3     1  UNL1        0.0161
     21 C          64.2116   83.3393    9.8705 C.3     1  UNL1        0.0161
     22 C          64.1706   81.3062   11.9998 C.3     1  UNL1        0.0188
     23 C          64.5989   82.7180   11.7290 C.3     1  UNL1        0.0720
     24 C          60.8523   91.5474    4.2842 C.ar    1  UNL1        0.0507
     25 C          61.9790   91.6028    3.2954 C.ar    1  UNL1        0.0160
     26 C          61.8143   92.3624    2.0125 C.ar    1  UNL1        0.0160
     27 C          60.5230   93.0667    1.7184 C.ar    1  UNL1        0.0517
     28 C          59.3964   93.0114    2.7071 C.ar    1  UNL1        0.0160
     29 C          59.5610   92.2517    3.9900 C.ar    1  UNL1        0.0160
     30 N          60.3584   93.8263    0.4355 N.am    1  UNL1       -0.2680
     31 C          61.5242   93.9901   -0.4941 C.2     1  UNL1        0.3093
     32 O          62.8546   93.3942   -0.1408 O.2     1  UNL1       -0.2521
     33 N          61.3595   94.7497   -1.7770 N.am    1  UNL1       -0.2508
     34 H          59.4852   94.2174    0.2036 H       1  UNL1        0.1564
     35 H          60.4863   95.1408   -2.0089 H       1  UNL1        0.1579
     36 C          62.5253   94.9135   -2.7066 C.ar    1  UNL1        0.1771
     37 C          62.9945   93.9097   -3.7178 C.ar    1  UNL1        0.0734
     38 C          64.1858   94.4857   -4.4243 C.ar    1  UNL1        0.1549
     39 O          64.4528   95.8454   -3.8499 O.2     1  UNL1       -0.3565
     40 N          63.4266   96.1098   -2.7883 N.ar    1  UNL1       -0.0621
     41 C          64.9720   93.8190   -5.5140 C.3     1  UNL1        0.0539
     42 C          65.1385   95.1411   -6.2027 C.3     1  UNL1        0.0076
     43 C          64.8053   92.4968   -4.8253 C.3     1  UNL1        0.0076
     44 C          65.7581   93.1523   -6.6037 C.3     1  UNL1        0.0076
@<TRIPOS>BOND
     1    22    23    1
     2    23    12    1
     3    12    13    1
     4    13    14    1
     5    13    15    1
     6    13    16    1
     7    16    17    1
     8    17    11    1
     9    11     5    1
    10     5     6   ar
    11     6     7   ar
    12     7     8   ar
    13     8     1    1
    14     1     2    2
    15     1     3   am
    16     3    24    1
    17    24    25   ar
    18    25    26   ar
    19    26    27   ar
    20    27    30    1
    21    30    31   am
    22    31    32    2
    23    31    33   am
    24    33    36    1
    25    36    37   ar
    26    37    38   ar
    27    38    41    1
    28    41    42    1
    29    41    43    1
    30    41    44    1
    31    38    39   ar
    32    39    40   ar
    33    27    28   ar
    34    28    29   ar
    35     8     9   ar
    36     9    10   ar
    37    17    18    1
    38    18    19    1
    39    19    20    1
    40    19    21    1
    41    19    12    1
    42    10     5   ar
    43    29    24   ar
    44    40    36   ar
    45     3     4    1
    46    30    34    1
    47    33    35    1
@<TRIPOS>MOLECULE
*****
 44 47 0 0 0
SMALL
GASTEIGER

@<TRIPOS>ATOM
      1 C          61.4795   92.8358    2.1426 C.2     1  UNL1        0.2672
      2 O          62.3865   91.6843    2.4611 O.2     1  UNL1       -0.2682
      3 N          60.1824   92.9947    2.8790 N.am    1  UNL1       -0.2791
      4 H          59.5871   93.7505    2.6700 H       1  UNL1        0.1552
      5 C          62.6497   95.8132   -1.0222 C.ar    1  UNL1        0.1575
      6 C          63.7043   95.0043   -0.3268 C.ar    1  UNL1        0.0402
      7 C          63.3142   94.0118    0.7281 C.ar    1  UNL1        0.0269
      8 C          61.8696   93.8283    1.0876 C.ar    1  UNL1        0.1350
      9 N          60.8150   94.6371    0.3923 N.ar    1  UNL1       -0.2361
     10 C          61.2051   95.6296   -0.6627 C.ar    1  UNL1        0.1357
     11 O          63.0399   96.8056   -2.0771 O.3     1  UNL1       -0.4775
     12 N          64.5738   95.3726   -6.0575 N.3     1  UNL1       -0.2774
     13 C          63.1648   95.0681   -5.6429 C.3     1  UNL1        0.0488
     14 C          63.1896   94.4046   -6.9880 C.3     1  UNL1        0.0161
     15 C          61.7644   94.5332   -5.6955 C.3     1  UNL1        0.0161
     16 C          62.6534   95.5458   -4.3161 C.3     1  UNL1        0.0582
     17 C          63.5512   96.3279   -3.4039 C.3     1  UNL1        0.1686
     18 C          64.9602   96.6324   -3.8184 C.3     1  UNL1        0.0582
     19 C          65.4715   96.1547   -5.1452 C.3     1  UNL1        0.0488
     20 C          66.6943   96.8555   -4.6318 C.3     1  UNL1        0.0161
     21 C          66.4076   95.9204   -6.2936 C.3     1  UNL1        0.0161
     22 C          65.9228   93.6531   -7.4622 C.3     1  UNL1        0.0188
     23 C          65.0851   94.8949   -7.3842 C.3     1  UNL1        0.0720
     24 C          59.7924   92.0023    3.9339 C.ar    1  UNL1        0.0507
     25 C          60.8418   91.1571    4.5932 C.ar    1  UNL1        0.0160
     26 C          60.4518   90.1646    5.6481 C.ar    1  UNL1        0.0160
     27 C          59.0124   90.0172    6.0437 C.ar    1  UNL1        0.0517
     28 C          57.9631   90.8623    5.3845 C.ar    1  UNL1        0.0160
     29 C          58.3531   91.8549    4.3295 C.ar    1  UNL1        0.0160
     30 N          58.6224   89.0248    7.0986 N.am    1  UNL1       -0.2680
     31 C          59.6613   88.4711    8.0283 C.2     1  UNL1        0.3093
     32 O          61.0902   88.9100    7.9031 O.2     1  UNL1       -0.2521
     33 N          59.2713   87.4787    9.0832 N.am    1  UNL1       -0.2508
     34 H          57.6846   88.7367    7.1808 H       1  UNL1        0.1564
     35 H          58.3335   87.1906    9.1654 H       1  UNL1        0.1579
     36 C          60.3102   86.9250   10.0129 C.ar    1  UNL1        0.1771
     37 C          61.2082   85.7560    9.7358 C.ar    1  UNL1        0.0734
     38 C          62.0864   85.5518   10.9346 C.ar    1  UNL1        0.1549
     39 O          61.7311   86.5946   11.9526 O.2     1  UNL1       -0.3565
     40 N          60.6332   87.4434   11.3830 N.ar    1  UNL1       -0.0621
     41 C          63.1357   84.4909   11.0884 C.3     1  UNL1        0.0539
     42 C          63.0562   84.6286   12.5799 C.3     1  UNL1        0.0076
     43 C          63.2152   84.3533    9.5968 C.3     1  UNL1        0.0076
     44 C          64.1850   83.4302   11.2421 C.3     1  UNL1        0.0076
@<TRIPOS>BOND
     1    22    23    1
     2    23    12    1
     3    12    13    1
     4    13    14    1
     5    13    15    1
     6    13    16    1
     7    16    17    1
     8    17    11    1
     9    11     5    1
    10     5     6   ar
    11     6     7   ar
    12     7     8   ar
    13     8     1    1
    14     1     2    2
    15     1     3   am
    16     3    24    1
    17    24    25   ar
    18    25    26   ar
    19    26    27   ar
    20    27    30    1
    21    30    31   am
    22    31    32    2
    23    31    33   am
    24    33    36    1
    25    36    37   ar
    26    37    38   ar
    27    38    41    1
    28    41    42    1
    29    41    43    1
    30    41    44    1
    31    38    39   ar
    32    39    40   ar
    33    27    28   ar
    34    28    29   ar
    35     8     9   ar
    36     9    10   ar
    37    17    18    1
    38    18    19    1
    39    19    20    1
    40    19    21    1
    41    19    12    1
    42    10     5   ar
    43    29    24   ar
    44    40    36   ar
    45     3     4    1
    46    30    34    1
    47    33    35    1
@<TRIPOS>MOLECULE
*****
 44 47 0 0 0
SMALL
GASTEIGER

@<TRIPOS>ATOM
      1 C          60.8279   92.9274    2.4971 C.2     1  UNL1        0.2672
      2 O          61.9984   92.1774    3.0604 O.2     1  UNL1       -0.2682
      3 N          59.4527   92.6962    3.0498 N.am    1  UNL1       -0.2791
      4 H          58.6845   93.1885    2.6801 H       1  UNL1        0.1552
      5 C          61.4419   95.8711   -0.8507 C.ar    1  UNL1        0.1575
      6 C          60.1632   95.0918   -0.7623 C.ar    1  UNL1        0.0402
      7 C          59.9586   94.1106    0.3537 C.ar    1  UNL1        0.0269
      8 C          61.0326   93.9087    1.3812 C.ar    1  UNL1        0.1350
      9 N          62.3112   94.6879    1.2927 N.ar    1  UNL1       -0.2361
     10 C          62.5159   95.6692    0.1768 C.ar    1  UNL1        0.1357
     11 O          61.6465   96.8523   -1.9666 O.3     1  UNL1       -0.4775
     12 N          63.7429   95.5682   -5.7357 N.3     1  UNL1       -0.2774
     13 C          64.5153   96.2409   -4.6399 C.3     1  UNL1        0.0488
     14 C          65.6150   96.0198   -5.6357 C.3     1  UNL1        0.0161
     15 C          65.6695   96.8368   -3.8899 C.3     1  UNL1        0.0161
     16 C          63.8165   96.6689   -3.3835 C.3     1  UNL1        0.0582
     17 C          62.3453   96.4243   -3.2230 C.3     1  UNL1        0.1686
     18 C          61.5729   95.7516   -4.3189 C.3     1  UNL1        0.0582
     19 C          62.2717   95.3236   -5.5752 C.3     1  UNL1        0.0488
     20 C          60.8748   94.8763   -5.8889 C.3     1  UNL1        0.0161
     21 C          62.4853   94.7402   -6.9405 C.3     1  UNL1        0.0161
     22 C          65.1708   93.8300   -7.0356 C.3     1  UNL1        0.0188
     23 C          64.4417   95.1401   -6.9921 C.3     1  UNL1        0.0720
     24 C          59.2481   91.7150    4.1657 C.ar    1  UNL1        0.0507
     25 C          57.8702   91.4697    4.7055 C.ar    1  UNL1        0.0160
     26 C          57.6656   90.4885    5.8214 C.ar    1  UNL1        0.0160
     27 C          58.8388   89.7525    6.3975 C.ar    1  UNL1        0.0517
     28 C          60.2166   89.9978    5.8578 C.ar    1  UNL1        0.0160
     29 C          60.4213   90.9790    4.7418 C.ar    1  UNL1        0.0160
     30 N          58.6342   88.7713    7.5134 N.am    1  UNL1       -0.2680
     31 C          59.7717   88.4294    8.4296 C.2     1  UNL1        0.3093
     32 O          61.1138   89.0688    8.2297 O.2     1  UNL1       -0.2521
     33 N          59.5671   87.4482    9.5455 N.am    1  UNL1       -0.2508
     34 H          57.7533   88.3516    7.6446 H       1  UNL1        0.1564
     35 H          58.6862   87.0285    9.6766 H       1  UNL1        0.1579
     36 C          60.7046   87.1063   10.4616 C.ar    1  UNL1        0.1771
     37 C          61.3461   85.7581   10.6056 C.ar    1  UNL1        0.0734
     38 C          62.4383   85.8712   11.6276 C.ar    1  UNL1        0.1549
     39 O          62.4717   87.2894   12.1152 O.2     1  UNL1       -0.3565
     40 N          61.4002   88.0527   11.3946 N.ar    1  UNL1       -0.0621
     41 C          63.3389   84.7611   12.0821 C.3     1  UNL1        0.0539
     42 C          63.1507   84.0691   10.7646 C.3     1  UNL1        0.0076
     43 C          63.5270   85.4531   13.3996 C.3     1  UNL1        0.0076
     44 C          64.2394   83.6510   12.5366 C.3     1  UNL1        0.0076
@<TRIPOS>BOND
     1    22    23    1
     2    23    12    1
     3    12    13    1
     4    13    14    1
     5    13    15    1
     6    13    16    1
     7    16    17    1
     8    17    11    1
     9    11     5    1
    10     5     6   ar
    11     6     7   ar
    12     7     8   ar
    13     8     1    1
    14     1     2    2
    15     1     3   am
    16     3    24    1
    17    24    25   ar
    18    25    26   ar
    19    26    27   ar
    20    27    30    1
    21    30    31   am
    22    31    32    2
    23    31    33   am
    24    33    36    1
    25    36    37   ar
    26    37    38   ar
    27    38    41    1
    28    41    42    1
    29    41    43    1
    30    41    44    1
    31    38    39   ar
    32    39    40   ar
    33    27    28   ar
    34    28    29   ar
    35     8     9   ar
    36     9    10   ar
    37    17    18    1
    38    18    19    1
    39    19    20    1
    40    19    21    1
    41    19    12    1
    42    10     5   ar
    43    29    24   ar
    44    40    36   ar
    45     3     4    1
    46    30    34    1
    47    33    35    1
@<TRIPOS>MOLECULE
*****
 44 47 0 0 0
SMALL
GASTEIGER

@<TRIPOS>ATOM
      1 C          60.2265   92.9308    2.5136 C.2     1  UNL1        0.2672
      2 O          61.5551   92.3502    2.8978 O.2     1  UNL1       -0.2682
      3 N          58.9923   92.5484    3.2755 N.am    1  UNL1       -0.2791
      4 H          58.1203   92.9295    3.0233 H       1  UNL1        0.1552
      5 C          59.9433   95.8199   -0.9249 C.ar    1  UNL1        0.1575
      6 C          60.3119   94.3879   -1.1769 C.ar    1  UNL1        0.0402
      7 C          60.4062   93.4249   -0.0308 C.ar    1  UNL1        0.0269
      8 C          60.1321   93.8939    1.3674 C.ar    1  UNL1        0.1350
      9 N          59.7636   95.3259    1.6194 N.ar    1  UNL1       -0.2361
     10 C          59.6692   96.2890    0.4732 C.ar    1  UNL1        0.1357
     11 O          59.8489   96.7829   -2.0711 O.3     1  UNL1       -0.4775
     12 N          56.8811   96.0630   -5.3762 N.3     1  UNL1       -0.2774
     13 C          58.2845   96.4774   -5.7056 C.3     1  UNL1        0.0488
     14 C          57.7139   96.3682   -7.0885 C.3     1  UNL1        0.0161
     15 C          59.4898   96.8539   -6.5152 C.3     1  UNL1        0.0161
     16 C          59.2738   96.7174   -4.6039 C.3     1  UNL1        0.0582
     17 C          58.8596   96.5429   -3.1728 C.3     1  UNL1        0.1686
     18 C          57.4562   96.1285   -2.8434 C.3     1  UNL1        0.0582
     19 C          56.4669   95.8886   -3.9451 C.3     1  UNL1        0.0488
     20 C          55.6052   95.5954   -2.7528 C.3     1  UNL1        0.0161
     21 C          55.1783   95.5468   -4.6327 C.3     1  UNL1        0.0161
     22 C          55.6900   94.4375   -7.0161 C.3     1  UNL1        0.0188
     23 C          55.8918   95.8230   -6.4779 C.3     1  UNL1        0.0720
     24 C          59.0868   91.5854    4.4216 C.ar    1  UNL1        0.0507
     25 C          57.8467   91.1702    5.1565 C.ar    1  UNL1        0.0160
     26 C          57.9412   90.2071    6.3026 C.ar    1  UNL1        0.0160
     27 C          59.2756   89.6593    6.7139 C.ar    1  UNL1        0.0517
     28 C          60.5156   90.0746    5.9791 C.ar    1  UNL1        0.0160
     29 C          60.4212   91.0376    4.8329 C.ar    1  UNL1        0.0160
     30 N          59.3701   88.6963    7.8600 N.am    1  UNL1       -0.2680
     31 C          60.4473   88.8607    8.8910 C.2     1  UNL1        0.3093
     32 O          61.4299   89.9881    8.7757 O.2     1  UNL1       -0.2521
     33 N          60.5417   87.8977   10.0371 N.am    1  UNL1       -0.2508
     34 H          58.7251   87.9564    7.9356 H       1  UNL1        0.1564
     35 H          59.8967   87.1577   10.1127 H       1  UNL1        0.1579
     36 C          61.6189   88.0621   11.0680 C.ar    1  UNL1        0.1771
     37 C          62.1428   89.3647   11.5958 C.ar    1  UNL1        0.0734
     38 C          63.2089   89.0604   12.6061 C.ar    1  UNL1        0.1549
     39 O          63.3439   87.5695   12.7028 O.2     1  UNL1       -0.3565
     40 N          62.3611   86.9525   11.7522 N.ar    1  UNL1       -0.0621
     41 C          64.0010   90.0696   13.3833 C.3     1  UNL1        0.0539
     42 C          64.1850   89.0732   14.4894 C.3     1  UNL1        0.0076
     43 C          63.8170   91.0659   12.2771 C.3     1  UNL1        0.0076
     44 C          64.7931   91.0788   14.1604 C.3     1  UNL1        0.0076
@<TRIPOS>BOND
     1    22    23    1
     2    23    12    1
     3    12    13    1
     4    13    14    1
     5    13    15    1
     6    13    16    1
     7    16    17    1
     8    17    11    1
     9    11     5    1
    10     5     6   ar
    11     6     7   ar
    12     7     8   ar
    13     8     1    1
    14     1     2    2
    15     1     3   am
    16     3    24    1
    17    24    25   ar
    18    25    26   ar
    19    26    27   ar
    20    27    30    1
    21    30    31   am
    22    31    32    2
    23    31    33   am
    24    33    36    1
    25    36    37   ar
    26    37    38   ar
    27    38    41    1
    28    41    42    1
    29    41    43    1
    30    41    44    1
    31    38    39   ar
    32    39    40   ar
    33    27    28   ar
    34    28    29   ar
    35     8     9   ar
    36     9    10   ar
    37    17    18    1
    38    18    19    1
    39    19    20    1
    40    19    21    1
    41    19    12    1
    42    10     5   ar
    43    29    24   ar
    44    40    36   ar
    45     3     4    1
    46    30    34    1
    47    33    35    1
@<TRIPOS>MOLECULE
*****
 44 47 0 0 0
SMALL
GASTEIGER

@<TRIPOS>ATOM
      1 C          60.2368   92.9316    2.5320 C.2     1  UNL1        0.2672
      2 O          61.5636   92.3405    2.9066 O.2     1  UNL1       -0.2682
      3 N          59.0038   92.5521    3.2973 N.am    1  UNL1       -0.2791
      4 H          58.1330   92.9401    3.0514 H       1  UNL1        0.1552
      5 C          59.9557   95.8432   -0.8876 C.ar    1  UNL1        0.1575
      6 C          60.3320   94.4147   -1.1478 C.ar    1  UNL1        0.0402
      7 C          60.4257   93.4442   -0.0080 C.ar    1  UNL1        0.0269
      8 C          60.1431   93.9022    1.3922 C.ar    1  UNL1        0.1350
      9 N          59.7667   95.3306    1.6524 N.ar    1  UNL1       -0.2361
     10 C          59.6730   96.3012    0.5125 C.ar    1  UNL1        0.1357
     11 O          59.8620   96.8137   -2.0274 O.3     1  UNL1       -0.4775
     12 N          56.9783   96.0546   -5.3977 N.3     1  UNL1       -0.2774
     13 C          56.5314   95.8859   -3.9758 C.3     1  UNL1        0.0488
     14 C          55.2618   95.5315   -4.6917 C.3     1  UNL1        0.0161
     15 C          55.6435   95.5941   -2.8026 C.3     1  UNL1        0.0161
     16 C          57.4926   96.1389   -2.8524 C.3     1  UNL1        0.0582
     17 C          58.9008   96.5607   -3.1508 C.3     1  UNL1        0.1686
     18 C          59.3477   96.7294   -4.5727 C.3     1  UNL1        0.0582
     19 C          58.3865   96.4763   -5.6961 C.3     1  UNL1        0.0488
     20 C          59.6083   96.8560   -6.4791 C.3     1  UNL1        0.0161
     21 C          57.8497   96.3551   -7.0915 C.3     1  UNL1        0.0161
     22 C          55.9157   94.4334   -7.1275 C.3     1  UNL1        0.0188
     23 C          56.0171   95.8015   -6.5211 C.3     1  UNL1        0.0720
     24 C          59.0975   91.5816    4.4371 C.ar    1  UNL1        0.0507
     25 C          57.8587   91.1715    5.1769 C.ar    1  UNL1        0.0160
     26 C          57.9524   90.2010    6.3167 C.ar    1  UNL1        0.0160
     27 C          59.2850   89.6405    6.7168 C.ar    1  UNL1        0.0517
     28 C          60.5238   90.0505    5.9771 C.ar    1  UNL1        0.0160
     29 C          60.4301   91.0211    4.8372 C.ar    1  UNL1        0.0160
     30 N          59.3788   88.6699    7.8566 N.am    1  UNL1       -0.2680
     31 C          60.4560   88.8269    8.8887 C.2     1  UNL1        0.3093
     32 O          61.4394   89.9544    8.7808 O.2     1  UNL1       -0.2521
     33 N          60.5498   87.8563   10.0285 N.am    1  UNL1       -0.2508
     34 H          58.7333   87.9299    7.9274 H       1  UNL1        0.1564
     35 H          59.9043   87.1163   10.0993 H       1  UNL1        0.1579
     36 C          61.6270   88.0133   11.0605 C.ar    1  UNL1        0.1771
     37 C          62.1462   89.3119   11.6026 C.ar    1  UNL1        0.0734
     38 C          63.2142   89.0004   12.6088 C.ar    1  UNL1        0.1549
     39 O          63.3550   87.5091   12.6885 O.2     1  UNL1       -0.3565
     40 N          62.3740   86.8990   11.7316 N.ar    1  UNL1       -0.0621
     41 C          64.0029   90.0038   13.3968 C.3     1  UNL1        0.0539
     42 C          63.7735   91.0266   12.3238 C.3     1  UNL1        0.0076
     43 C          64.2322   88.9810   14.4698 C.3     1  UNL1        0.0076
     44 C          64.7915   91.0073   14.1848 C.3     1  UNL1        0.0076
@<TRIPOS>BOND
     1    22    23    1
     2    23    12    1
     3    12    13    1
     4    13    14    1
     5    13    15    1
     6    13    16    1
     7    16    17    1
     8    17    11    1
     9    11     5    1
    10     5     6   ar
    11     6     7   ar
    12     7     8   ar
    13     8     1    1
    14     1     2    2
    15     1     3   am
    16     3    24    1
    17    24    25   ar
    18    25    26   ar
    19    26    27   ar
    20    27    30    1
    21    30    31   am
    22    31    32    2
    23    31    33   am
    24    33    36    1
    25    36    37   ar
    26    37    38   ar
    27    38    41    1
    28    41    42    1
    29    41    43    1
    30    41    44    1
    31    38    39   ar
    32    39    40   ar
    33    27    28   ar
    34    28    29   ar
    35     8     9   ar
    36     9    10   ar
    37    17    18    1
    38    18    19    1
    39    19    20    1
    40    19    21    1
    41    19    12    1
    42    10     5   ar
    43    29    24   ar
    44    40    36   ar
    45     3     4    1
    46    30    34    1
    47    33    35    1
