@<TRIPOS>MOLECULE
*****
 21 23 0 0 0
SMALL
GASTEIGER

@<TRIPOS>ATOM
      1 N          63.4664   83.5115   12.8076 N.pl3   1  UNL1       -0.3007
      2 F          64.6559   82.6626   10.1876 F       1  UNL1       -0.2029
      3 C          63.7024   83.8194   10.2387 C.ar    1  UNL1        0.1533
      4 C          63.3436   84.5517    8.9797 C.ar    1  UNL1        0.0309
      5 C          62.3901   85.7085    9.0308 C.ar    1  UNL1        0.0024
      6 C          61.7953   86.1330   10.3408 C.ar    1  UNL1        0.0014
      7 C          62.1541   85.4006   11.5997 C.ar    1  UNL1        0.0168
      8 C          63.1076   84.2438   11.5486 C.ar    1  UNL1        0.0759
      9 C          62.7948   82.2112   13.1362 C.3     1  UNL1        0.1045
     10 C          61.8738   81.7375   14.2213 C.3     1  UNL1        0.0900
     11 N          61.8449   80.3722   13.6009 N.3     1  UNL1       -0.2946
     12 C          62.7660   80.8458   12.5158 C.3     1  UNL1        0.0900
     13 H          60.9241   80.0847   13.2695 H       1  UNL1        0.1233
     14 C          64.4968   84.0796   13.7380 C.3     1  UNL1        0.1178
     15 C          64.1483   85.2367   14.6265 C.ar    1  UNL1       -0.0024
     16 C          64.4602   86.6377   14.1905 C.ar    1  UNL1       -0.0017
     17 C          64.1117   87.7948   15.0791 C.ar    1  UNL1        0.0111
     18 C          63.4515   87.5511   16.4037 C.ar    1  UNL1        0.0577
     19 CL         63.1030   88.7082   17.2922 Cl      1  UNL1       -0.0822
     20 C          63.1396   86.1501   16.8397 C.ar    1  UNL1        0.0111
     21 C          63.4880   84.9930   15.9512 C.ar    1  UNL1       -0.0017
@<TRIPOS>BOND
     1     2     3    1
     2     3     4   ar
     3     4     5   ar
     4     5     6   ar
     5     6     7   ar
     6     7     8   ar
     7     8     1    1
     8     1    14    1
     9    14    15    1
    10    15    16   ar
    11    16    17   ar
    12    17    18   ar
    13    18    19    1
    14    18    20   ar
    15    20    21   ar
    16     1     9    1
    17     9    10    1
    18    10    11    1
    19    11    12    1
    20     8     3   ar
    21    21    15   ar
    22    12     9    1
    23    11    13    1
@<TRIPOS>MOLECULE
*****
 21 23 0 0 0
SMALL
GASTEIGER

@<TRIPOS>ATOM
      1 N          60.9415   87.3881    9.9324 N.pl3   1  UNL1       -0.3007
      2 F          61.4626   85.7600   12.3978 F       1  UNL1       -0.2029
      3 C          62.1230   85.3917   11.1024 C.ar    1  UNL1        0.1533
      4 C          63.0440   84.2095   11.0396 C.ar    1  UNL1        0.0309
      5 C          63.7044   83.8411    9.7441 C.ar    1  UNL1        0.0024
      6 C          63.4438   84.6551    8.5114 C.ar    1  UNL1        0.0014
      7 C          62.5229   85.8374    8.5742 C.ar    1  UNL1        0.0168
      8 C          61.8625   86.2057    9.8697 C.ar    1  UNL1        0.0759
      9 C          59.9928   87.6606    8.8030 C.3     1  UNL1        0.1045
     10 C          59.6641   88.8562    7.9589 C.3     1  UNL1        0.0900
     11 N          58.6512   88.0459    7.2056 N.3     1  UNL1       -0.2946
     12 C          58.9799   86.8503    8.0496 C.3     1  UNL1        0.0900
     13 H          58.8653   87.9281    6.2153 H       1  UNL1        0.1233
     14 C          60.9692   88.2979   11.1247 C.3     1  UNL1        0.1178
     15 C          62.0231   89.3596   11.2336 C.ar    1  UNL1       -0.0024
     16 C          62.2667   90.2950   10.0865 C.ar    1  UNL1       -0.0017
     17 C          63.3206   91.3568   10.1955 C.ar    1  UNL1        0.0111
     18 C          64.1309   91.4832   11.4514 C.ar    1  UNL1        0.0577
     19 CL         65.1848   92.5450   11.5603 Cl      1  UNL1       -0.0822
     20 C          63.8873   90.5478   12.5984 C.ar    1  UNL1        0.0111
     21 C          62.8334   89.4861   12.4896 C.ar    1  UNL1       -0.0017
@<TRIPOS>BOND
     1     2     3    1
     2     3     4   ar
     3     4     5   ar
     4     5     6   ar
     5     6     7   ar
     6     7     8   ar
     7     8     1    1
     8     1    14    1
     9    14    15    1
    10    15    16   ar
    11    16    17   ar
    12    17    18   ar
    13    18    19    1
    14    18    20   ar
    15    20    21   ar
    16     1     9    1
    17     9    10    1
    18    10    11    1
    19    11    12    1
    20     8     3   ar
    21    21    15   ar
    22    12     9    1
    23    11    13    1
@<TRIPOS>MOLECULE
*****
 21 23 0 0 0
SMALL
GASTEIGER

@<TRIPOS>ATOM
      1 N          60.8855   87.4528   10.1968 N.pl3   1  UNL1       -0.3007
      2 F          62.2286   86.2956    7.7766 F       1  UNL1       -0.2029
      3 C          62.4288   85.6609    9.1209 C.ar    1  UNL1        0.1533
      4 C          63.3005   84.4477    9.2551 C.ar    1  UNL1        0.0309
      5 C          63.5007   83.8130   10.5994 C.ar    1  UNL1        0.0024
      6 C          62.8292   84.3915   11.8095 C.ar    1  UNL1        0.0014
      7 C          61.9575   85.6048   11.6753 C.ar    1  UNL1        0.0168
      8 C          61.7573   86.2395   10.3310 C.ar    1  UNL1        0.0759
      9 C          60.0101   87.6176    8.9900 C.3     1  UNL1        0.1045
     10 C          59.7502   88.7243    8.0113 C.3     1  UNL1        0.0900
     11 N          58.7721   87.8506    7.2832 N.3     1  UNL1       -0.2946
     12 C          59.0320   86.7440    8.2619 C.3     1  UNL1        0.0900
     13 H          59.0431   87.6311    6.3247 H       1  UNL1        0.1233
     14 C          60.8892   88.5013   11.2695 C.3     1  UNL1        0.1178
     15 C          61.9854   89.5241   11.3148 C.ar    1  UNL1       -0.0024
     16 C          62.7977   89.6981   12.5637 C.ar    1  UNL1       -0.0017
     17 C          63.8940   90.7210   12.6089 C.ar    1  UNL1        0.0111
     18 C          64.1779   91.5698   11.4053 C.ar    1  UNL1        0.0577
     19 CL         65.2741   92.5926   11.4505 Cl      1  UNL1       -0.0822
     20 C          63.3656   91.3958   10.1563 C.ar    1  UNL1        0.0111
     21 C          62.2693   90.3730   10.1111 C.ar    1  UNL1       -0.0017
@<TRIPOS>BOND
     1     2     3    1
     2     3     4   ar
     3     4     5   ar
     4     5     6   ar
     5     6     7   ar
     6     7     8   ar
     7     8     1    1
     8     1    14    1
     9    14    15    1
    10    15    16   ar
    11    16    17   ar
    12    17    18   ar
    13    18    19    1
    14    18    20   ar
    15    20    21   ar
    16     1     9    1
    17     9    10    1
    18    10    11    1
    19    11    12    1
    20     8     3   ar
    21    21    15   ar
    22    12     9    1
    23    11    13    1
@<TRIPOS>MOLECULE
*****
 21 23 0 0 0
SMALL
GASTEIGER

@<TRIPOS>ATOM
      1 N          64.7524   91.5059   13.8908 N.pl3   1  UNL1       -0.3007
      2 F          65.0443   92.6216   16.6603 F       1  UNL1       -0.2029
      3 C          66.2537   92.4493   15.7898 C.ar    1  UNL1        0.1533
      4 C          67.6090   92.8349   16.3040 C.ar    1  UNL1        0.0309
      5 C          68.8183   92.6626   15.4335 C.ar    1  UNL1        0.0024
      6 C          68.6724   92.1048   14.0488 C.ar    1  UNL1        0.0014
      7 C          67.3171   91.7192   13.5346 C.ar    1  UNL1        0.0168
      8 C          66.1077   91.8915   14.4051 C.ar    1  UNL1        0.0759
      9 C          64.4388   91.6387   12.4300 C.3     1  UNL1        0.1045
     10 C          63.4255   91.0348   11.5035 C.3     1  UNL1        0.0900
     11 N          63.9954   91.8266   10.3641 N.3     1  UNL1       -0.2946
     12 C          65.0087   92.4306   11.2906 C.3     1  UNL1        0.0900
     13 H          63.3460   92.5016    9.9601 H       1  UNL1        0.1233
     14 C          63.7107   90.9874   14.8374 C.3     1  UNL1        0.1178
     15 C          63.7191   89.5438   15.2444 C.ar    1  UNL1       -0.0024
     16 C          63.0828   89.1252   16.5367 C.ar    1  UNL1       -0.0017
     17 C          63.0912   87.6814   16.9437 C.ar    1  UNL1        0.0111
     18 C          63.7359   86.6564   16.0585 C.ar    1  UNL1        0.0577
     19 CL         63.7443   85.2127   16.4655 Cl      1  UNL1       -0.0822
     20 C          64.3722   87.0750   14.7662 C.ar    1  UNL1        0.0111
     21 C          64.3637   88.5187   14.3592 C.ar    1  UNL1       -0.0017
@<TRIPOS>BOND
     1     2     3    1
     2     3     4   ar
     3     4     5   ar
     4     5     6   ar
     5     6     7   ar
     6     7     8   ar
     7     8     1    1
     8     1    14    1
     9    14    15    1
    10    15    16   ar
    11    16    17   ar
    12    17    18   ar
    13    18    19    1
    14    18    20   ar
    15    20    21   ar
    16     1     9    1
    17     9    10    1
    18    10    11    1
    19    11    12    1
    20     8     3   ar
    21    21    15   ar
    22    12     9    1
    23    11    13    1
@<TRIPOS>MOLECULE
*****
 21 23 0 0 0
SMALL
GASTEIGER

@<TRIPOS>ATOM
      1 N          66.4588   92.5410   12.9722 N.pl3   1  UNL1       -0.3007
      2 F          65.8329   95.2179   11.7713 F       1  UNL1       -0.2029
      3 C          66.6632   94.2291   11.0078 C.ar    1  UNL1        0.1533
      4 C          67.1805   94.5788    9.6440 C.ar    1  UNL1        0.0309
      5 C          68.0108   93.5899    8.8806 C.ar    1  UNL1        0.0024
      6 C          68.3238   92.2515    9.4810 C.ar    1  UNL1        0.0014
      7 C          67.8065   91.9018   10.8448 C.ar    1  UNL1        0.0168
      8 C          66.9761   92.8907   11.6082 C.ar    1  UNL1        0.0759
      9 C          67.4137   92.3781   14.1174 C.3     1  UNL1        0.1045
     10 C          67.3141   92.5096   15.6083 C.3     1  UNL1        0.0900
     11 N          68.7641   92.1477   15.7371 N.3     1  UNL1       -0.2946
     12 C          68.8636   92.0162   14.2462 C.3     1  UNL1        0.0900
     13 H          68.9330   91.2788   16.2440 H       1  UNL1        0.1233
     14 C          64.9866   92.3542   13.1907 C.3     1  UNL1        0.1178
     15 C          64.2268   91.3566   12.3676 C.ar    1  UNL1       -0.0024
     16 C          63.8450   91.6854   10.9548 C.ar    1  UNL1       -0.0017
     17 C          63.0851   90.6878   10.1317 C.ar    1  UNL1        0.0111
     18 C          62.7072   89.3614   10.7214 C.ar    1  UNL1        0.0577
     19 CL         61.9474   88.3639    9.8983 Cl      1  UNL1       -0.0822
     20 C          63.0890   89.0326   12.1342 C.ar    1  UNL1        0.0111
     21 C          63.8488   90.0302   12.9573 C.ar    1  UNL1       -0.0017
@<TRIPOS>BOND
     1     2     3    1
     2     3     4   ar
     3     4     5   ar
     4     5     6   ar
     5     6     7   ar
     6     7     8   ar
     7     8     1    1
     8     1    14    1
     9    14    15    1
    10    15    16   ar
    11    16    17   ar
    12    17    18   ar
    13    18    19    1
    14    18    20   ar
    15    20    21   ar
    16     1     9    1
    17     9    10    1
    18    10    11    1
    19    11    12    1
    20     8     3   ar
    21    21    15   ar
    22    12     9    1
    23    11    13    1
@<TRIPOS>MOLECULE
*****
 21 23 0 0 0
SMALL
GASTEIGER

@<TRIPOS>ATOM
      1 N          66.2221   92.4066   12.7384 N.pl3   1  UNL1       -0.3007
      2 F          65.8214   95.2530   11.8795 F       1  UNL1       -0.2029
      3 C          66.6449   94.3243   11.0372 C.ar    1  UNL1        0.1533
      4 C          67.2680   94.8187    9.7655 C.ar    1  UNL1        0.0309
      5 C          68.0915   93.8900    8.9233 C.ar    1  UNL1        0.0024
      6 C          68.2918   92.4669    9.3527 C.ar    1  UNL1        0.0014
      7 C          67.6687   91.9724   10.6244 C.ar    1  UNL1        0.0168
      8 C          66.8452   92.9011   11.4667 C.ar    1  UNL1        0.0759
      9 C          66.9704   92.5191   14.0335 C.3     1  UNL1        0.1045
     10 C          67.7639   91.5735   14.8856 C.3     1  UNL1        0.0900
     11 N          68.0287   92.6783   15.8650 N.3     1  UNL1       -0.2946
     12 C          67.2353   93.6239   15.0129 C.3     1  UNL1        0.0900
     13 H          69.0138   92.9266   15.9563 H       1  UNL1        0.1233
     14 C          64.8505   91.7997   12.7149 C.3     1  UNL1        0.1178
     15 C          64.4110   90.8964   13.8289 C.ar    1  UNL1       -0.0024
     16 C          64.0188   91.4772   15.1551 C.ar    1  UNL1       -0.0017
     17 C          63.5793   90.5739   16.2690 C.ar    1  UNL1        0.0111
     18 C          63.5319   89.0897   16.0567 C.ar    1  UNL1        0.0577
     19 CL         63.0924   88.1865   17.1706 Cl      1  UNL1       -0.0822
     20 C          63.9241   88.5089   14.7305 C.ar    1  UNL1        0.0111
     21 C          64.3636   89.4122   13.6166 C.ar    1  UNL1       -0.0017
@<TRIPOS>BOND
     1     2     3    1
     2     3     4   ar
     3     4     5   ar
     4     5     6   ar
     5     6     7   ar
     6     7     8   ar
     7     8     1    1
     8     1    14    1
     9    14    15    1
    10    15    16   ar
    11    16    17   ar
    12    17    18   ar
    13    18    19    1
    14    18    20   ar
    15    20    21   ar
    16     1     9    1
    17     9    10    1
    18    10    11    1
    19    11    12    1
    20     8     3   ar
    21    21    15   ar
    22    12     9    1
    23    11    13    1
@<TRIPOS>MOLECULE
*****
 21 23 0 0 0
SMALL
GASTEIGER

@<TRIPOS>ATOM
      1 N          61.3111   89.2388   10.1966 N.pl3   1  UNL1       -0.3007
      2 F          59.0874   88.6743    8.2635 F       1  UNL1       -0.2029
      3 C          60.2117   87.6938    8.4205 C.ar    1  UNL1        0.1533
      4 C          60.2242   86.4312    7.6109 C.ar    1  UNL1        0.0309
      5 C          61.3484   85.4507    7.7679 C.ar    1  UNL1        0.0024
      6 C          62.4603   85.7329    8.7344 C.ar    1  UNL1        0.0014
      7 C          62.4478   86.9956    9.5439 C.ar    1  UNL1        0.0168
      8 C          61.3235   87.9761    9.3870 C.ar    1  UNL1        0.0759
      9 C          60.1530   89.5380   11.1018 C.3     1  UNL1        0.1045
     10 C          59.3255   90.7532   11.3991 C.3     1  UNL1        0.0900
     11 N          58.5153   89.9611   12.3820 N.3     1  UNL1       -0.2946
     12 C          59.3429   88.7458   12.0847 C.3     1  UNL1        0.0900
     13 H          57.5314   89.8666   12.1303 H       1  UNL1        0.1233
     14 C          62.4567   90.2023   10.1009 C.3     1  UNL1        0.1178
     15 C          63.2995   90.4877   11.3084 C.ar    1  UNL1       -0.0024
     16 C          64.1614   91.7147   11.3485 C.ar    1  UNL1       -0.0017
     17 C          65.0042   92.0001   12.5562 C.ar    1  UNL1        0.0111
     18 C          64.9851   91.0585   13.7236 C.ar    1  UNL1        0.0577
     19 CL         65.8279   91.3439   14.9311 Cl      1  UNL1       -0.0822
     20 C          64.1232   89.8315   13.6835 C.ar    1  UNL1        0.0111
     21 C          63.2804   89.5461   12.4760 C.ar    1  UNL1       -0.0017
@<TRIPOS>BOND
     1     2     3    1
     2     3     4   ar
     3     4     5   ar
     4     5     6   ar
     5     6     7   ar
     6     7     8   ar
     7     8     1    1
     8     1    14    1
     9    14    15    1
    10    15    16   ar
    11    16    17   ar
    12    17    18   ar
    13    18    19    1
    14    18    20   ar
    15    20    21   ar
    16     1     9    1
    17     9    10    1
    18    10    11    1
    19    11    12    1
    20     8     3   ar
    21    21    15   ar
    22    12     9    1
    23    11    13    1
@<TRIPOS>MOLECULE
*****
 21 23 0 0 0
SMALL
GASTEIGER

@<TRIPOS>ATOM
      1 N          65.2763   92.1398   13.2423 N.pl3   1  UNL1       -0.3007
      2 F          68.0649   91.5985   12.2774 F       1  UNL1       -0.2029
      3 C          67.8259   91.9679   13.7115 C.ar    1  UNL1        0.1533
      4 C          68.9812   92.0666   14.6630 C.ar    1  UNL1        0.0309
      5 C          68.7423   92.4360   16.0971 C.ar    1  UNL1        0.0024
      6 C          67.3481   92.7067   16.5795 C.ar    1  UNL1        0.0014
      7 C          66.1928   92.6080   15.6279 C.ar    1  UNL1        0.0168
      8 C          66.4317   92.2386   14.1939 C.ar    1  UNL1        0.0759
      9 C          65.3812   92.7378   11.8707 C.3     1  UNL1        0.1045
     10 C          66.0136   93.9709   11.2967 C.3     1  UNL1        0.0900
     11 N          65.5295   93.5834    9.9309 N.3     1  UNL1       -0.2946
     12 C          64.8972   92.3502   10.5049 C.3     1  UNL1        0.0900
     13 H          66.2765   93.3956    9.2621 H       1  UNL1        0.1233
     14 C          64.0161   91.4431   13.6625 C.3     1  UNL1        0.1178
     15 C          63.9320   89.9466   13.6063 C.ar    1  UNL1       -0.0024
     16 C          64.4948   89.1213   14.7253 C.ar    1  UNL1       -0.0017
     17 C          64.4107   87.6246   14.6691 C.ar    1  UNL1        0.0111
     18 C          63.7638   86.9534   13.4940 C.ar    1  UNL1        0.0577
     19 CL         63.6797   85.4568   13.4378 Cl      1  UNL1       -0.0822
     20 C          63.2011   87.7787   12.3750 C.ar    1  UNL1        0.0111
     21 C          63.2852   89.2753   12.4311 C.ar    1  UNL1       -0.0017
@<TRIPOS>BOND
     1     2     3    1
     2     3     4   ar
     3     4     5   ar
     4     5     6   ar
     5     6     7   ar
     6     7     8   ar
     7     8     1    1
     8     1    14    1
     9    14    15    1
    10    15    16   ar
    11    16    17   ar
    12    17    18   ar
    13    18    19    1
    14    18    20   ar
    15    20    21   ar
    16     1     9    1
    17     9    10    1
    18    10    11    1
    19    11    12    1
    20     8     3   ar
    21    21    15   ar
    22    12     9    1
    23    11    13    1
@<TRIPOS>MOLECULE
*****
 21 23 0 0 0
SMALL
GASTEIGER

@<TRIPOS>ATOM
      1 N          61.9680   86.3770   11.0773 N.pl3   1  UNL1       -0.3007
      2 F          59.4377   87.0010    9.5913 F       1  UNL1       -0.2029
      3 C          60.5569   86.2823    8.8979 C.ar    1  UNL1        0.1533
      4 C          60.4110   85.8757    7.4615 C.ar    1  UNL1        0.0309
      5 C          61.5303   85.1570    6.7680 C.ar    1  UNL1        0.0024
      6 C          62.7954   84.8450    7.5110 C.ar    1  UNL1        0.0014
      7 C          62.9413   85.2517    8.9474 C.ar    1  UNL1        0.0168
      8 C          61.8221   85.9704    9.6408 C.ar    1  UNL1        0.0759
      9 C          62.6478   85.4606   12.0509 C.3     1  UNL1        0.1045
     10 C          63.5070   85.6521   13.2654 C.3     1  UNL1        0.0900
     11 N          63.6091   84.1644   13.4278 N.3     1  UNL1       -0.2946
     12 C          62.7499   83.9729   12.2133 C.3     1  UNL1        0.0900
     13 H          63.1957   83.8104   14.2904 H       1  UNL1        0.1233
     14 C          61.4342   87.7002   11.5401 C.3     1  UNL1        0.1178
     15 C          62.2845   88.9312   11.4325 C.ar    1  UNL1       -0.0024
     16 C          62.2909   89.7297   10.1627 C.ar    1  UNL1       -0.0017
     17 C          63.1413   90.9607   10.0551 C.ar    1  UNL1        0.0111
     18 C          63.9852   91.3931   11.2172 C.ar    1  UNL1        0.0577
     19 CL         64.8356   92.6241   11.1096 Cl      1  UNL1       -0.0822
     20 C          63.9789   90.5946   12.4870 C.ar    1  UNL1        0.0111
     21 C          63.1285   89.3637   12.5947 C.ar    1  UNL1       -0.0017
@<TRIPOS>BOND
     1     2     3    1
     2     3     4   ar
     3     4     5   ar
     4     5     6   ar
     5     6     7   ar
     6     7     8   ar
     7     8     1    1
     8     1    14    1
     9    14    15    1
    10    15    16   ar
    11    16    17   ar
    12    17    18   ar
    13    18    19    1
    14    18    20   ar
    15    20    21   ar
    16     1     9    1
    17     9    10    1
    18    10    11    1
    19    11    12    1
    20     8     3   ar
    21    21    15   ar
    22    12     9    1
    23    11    13    1
