@<TRIPOS>MOLECULE
*****
 33 37 0 0 0
SMALL
GASTEIGER

@<TRIPOS>ATOM
      1 C          64.6782   89.8011   14.5870 C.ar    1  UNL1        0.0174
      2 C          64.3605   90.2847   13.2032 C.ar    1  UNL1       -0.0010
      3 C          64.9561   91.5667   12.7014 C.ar    1  UNL1        0.0021
      4 C          65.8695   92.3651   13.5836 C.ar    1  UNL1        0.0551
      5 C          66.1873   91.8815   14.9675 C.ar    1  UNL1        0.0756
      6 C          65.5917   90.5995   15.4692 C.ar    1  UNL1        0.0055
      7 C          66.3043   93.5812   12.8208 C.2     1  UNL1        0.2489
      8 O          67.2226   94.6556   13.3234 O.2     1  UNL1       -0.2699
      9 N          65.6596   93.5345   11.4672 N.am    1  UNL1       -0.2736
     10 C          64.8264   92.2894   11.3935 C.3     1  UNL1        0.1205
     11 C          62.8937   83.7014   15.1918 C.ar    1  UNL1        0.1574
     12 C          63.6568   84.5797   14.2451 C.ar    1  UNL1        0.0750
     13 C          63.6554   85.9726   14.8016 C.ar    1  UNL1        0.1666
     14 N          64.2510   87.2545   14.2998 N.ar    1  UNL1       -0.2264
     15 C          64.0826   88.5191   15.0888 C.ar    1  UNL1        0.0845
     16 C          63.3186   88.5017   16.3795 C.ar    1  UNL1        0.0399
     17 C          62.7230   87.2198   16.8813 C.ar    1  UNL1        0.1037
     18 N          62.8914   85.9552   16.0924 N.ar    1  UNL1       -0.2095
     19 N          62.4207   84.5515   16.3335 N.ar    1  UNL1       -0.1484
     20 C          62.1231   80.1958   13.4987 C.3     1  UNL1        0.0950
     21 C          62.3698   81.6660   13.6645 C.2     1  UNL1        0.2277
     22 O          62.3392   82.5712   12.4687 O.2     1  UNL1       -0.2747
     23 N          62.6471   82.2311   15.0260 N.am    1  UNL1       -0.2679
     24 H          62.6671   81.6370   15.8108 H       1  UNL1        0.1563
     25 C          67.1007   92.6799   15.8497 C.3     1  UNL1        0.4187
     26 F          68.0141   93.4783   16.7318 F       1  UNL1       -0.1659
     27 F          65.9314   93.0767   16.7013 F       1  UNL1       -0.1659
     28 F          68.2700   92.2831   14.9980 F       1  UNL1       -0.1659
     29 C          65.8200   94.5538   10.3786 C.3     1  UNL1        0.0759
     30 C          64.9390   95.7675   10.3518 C.3     1  UNL1        0.0215
     31 C          66.8614   94.3595    9.3167 C.3     1  UNL1        0.0182
     32 C          67.9654   93.5421    8.7139 C.3     1  UNL1        0.0017
     33 C          67.5613   94.8403    8.0802 C.3     1  UNL1        0.0017
@<TRIPOS>BOND
     1    20    21    1
     2    21    22    2
     3    21    23   am
     4    23    11    1
     5    11    12   ar
     6    12    13   ar
     7    13    14   ar
     8    14    15   ar
     9    15     1    1
    10     1     2   ar
    11     2     3   ar
    12     3     4   ar
    13     4     5   ar
    14     5    25    1
    15    25    26    1
    16    25    27    1
    17    25    28    1
    18     5     6   ar
    19     4     7    1
    20     7     8    2
    21     7     9   am
    22     9    29    1
    23    29    30    1
    24    29    31    1
    25    31    32    1
    26    32    33    1
    27     9    10    1
    28    15    16   ar
    29    16    17   ar
    30    17    18   ar
    31    18    19   ar
    32    19    11   ar
    33    18    13   ar
    34     6     1   ar
    35    33    31    1
    36    10     3    1
    37    23    24    1
@<TRIPOS>MOLECULE
*****
 33 37 0 0 0
SMALL
GASTEIGER

@<TRIPOS>ATOM
      1 C          64.2025   88.7376   14.2510 C.ar    1  UNL1        0.0174
      2 C          64.0836   87.6698   13.2042 C.ar    1  UNL1       -0.0010
      3 C          63.5865   86.3049   13.5782 C.ar    1  UNL1        0.0021
      4 C          63.2083   86.0077   14.9990 C.ar    1  UNL1        0.0551
      5 C          63.3272   87.0756   16.0458 C.ar    1  UNL1        0.0756
      6 C          63.8243   88.4405   15.6717 C.ar    1  UNL1        0.0055
      7 C          62.7532   84.5802   15.0687 C.2     1  UNL1        0.2489
      8 O          62.2836   83.8635   16.2999 O.2     1  UNL1       -0.2699
      9 N          62.8501   83.9950   13.6910 N.am    1  UNL1       -0.2736
     10 C          63.3652   85.0610   12.7698 C.3     1  UNL1        0.1205
     11 C          65.6666   94.0522   11.0309 C.ar    1  UNL1        0.1574
     12 C          65.0212   92.7180   10.7998 C.ar    1  UNL1        0.0750
     13 C          65.0380   91.9641   12.0965 C.ar    1  UNL1        0.1666
     14 N          64.5409   90.5992   12.4705 N.ar    1  UNL1       -0.2264
     15 C          64.6996   90.1025   13.8769 C.ar    1  UNL1        0.0845
     16 C          65.3554   90.9708   14.9094 C.ar    1  UNL1        0.0399
     17 C          65.8525   92.3357   14.5355 C.ar    1  UNL1        0.1037
     18 N          65.6938   92.8323   13.1290 N.ar    1  UNL1       -0.2095
     19 N          66.0823   94.1228   12.4704 N.ar    1  UNL1       -0.1484
     20 C          67.3842   96.3543    8.2923 C.3     1  UNL1        0.0950
     21 C          67.1888   95.2795    9.3203 C.2     1  UNL1        0.2277
     22 O          68.3204   94.3573    9.6655 O.2     1  UNL1       -0.2747
     23 N          65.8619   95.1269   10.0030 N.am    1  UNL1       -0.2679
     24 H          65.1193   95.7322    9.7764 H       1  UNL1        0.1563
     25 C          62.9490   86.7785   17.4666 C.3     1  UNL1        0.4187
     26 F          62.5707   86.4813   18.8874 F       1  UNL1       -0.1659
     27 F          64.1080   85.8327   17.5774 F       1  UNL1       -0.1659
     28 F          61.7899   87.7242   17.3558 F       1  UNL1       -0.1659
     29 C          62.4945   82.5905   13.3026 C.3     1  UNL1        0.0759
     30 C          61.6793   81.7393   14.2304 C.3     1  UNL1        0.0215
     31 C          62.9540   82.0371   11.9863 C.3     1  UNL1        0.0182
     32 C          63.6624   82.2193   10.6767 C.3     1  UNL1        0.0017
     33 C          63.0416   80.8965   11.0161 C.3     1  UNL1        0.0017
@<TRIPOS>BOND
     1    20    21    1
     2    21    22    2
     3    21    23   am
     4    23    11    1
     5    11    12   ar
     6    12    13   ar
     7    13    14   ar
     8    14    15   ar
     9    15     1    1
    10     1     2   ar
    11     2     3   ar
    12     3     4   ar
    13     4     5   ar
    14     5    25    1
    15    25    26    1
    16    25    27    1
    17    25    28    1
    18     5     6   ar
    19     4     7    1
    20     7     8    2
    21     7     9   am
    22     9    29    1
    23    29    30    1
    24    29    31    1
    25    31    32    1
    26    32    33    1
    27     9    10    1
    28    15    16   ar
    29    16    17   ar
    30    17    18   ar
    31    18    19   ar
    32    19    11   ar
    33    18    13   ar
    34     6     1   ar
    35    33    31    1
    36    10     3    1
    37    23    24    1
@<TRIPOS>MOLECULE
*****
 33 37 0 0 0
SMALL
GASTEIGER

@<TRIPOS>ATOM
      1 C          63.4668   88.3928   13.1946 C.ar    1  UNL1        0.0174
      2 C          62.8044   88.7725   11.9034 C.ar    1  UNL1       -0.0010
      3 C          62.3090   87.7056   10.9725 C.ar    1  UNL1        0.0021
      4 C          62.4759   86.2591   11.3329 C.ar    1  UNL1        0.0551
      5 C          63.1383   85.8795   12.6241 C.ar    1  UNL1        0.0756
      6 C          63.6337   86.9463   13.5549 C.ar    1  UNL1        0.0055
      7 C          61.8918   85.4349   10.2242 C.2     1  UNL1        0.2489
      8 O          61.8440   83.9366   10.1704 O.2     1  UNL1       -0.2699
      9 N          61.3638   86.3719    9.1786 N.am    1  UNL1       -0.2736
     10 C          61.6217   87.7753    9.6412 C.3     1  UNL1        0.1205
     11 C          66.8845   93.0601   15.8951 C.ar    1  UNL1        0.1574
     12 C          66.9038   92.1910   14.6727 C.ar    1  UNL1        0.0750
     13 C          65.7101   91.2844   14.7295 C.ar    1  UNL1        0.1666
     14 N          65.2147   90.2176   13.7987 N.ar    1  UNL1       -0.2264
     15 C          63.9623   89.4596   14.1254 C.ar    1  UNL1        0.0845
     16 C          63.2053   89.7684   15.3830 C.ar    1  UNL1        0.0399
     17 C          63.7006   90.8351   16.3139 C.ar    1  UNL1        0.1037
     18 N          64.9531   91.5931   15.9872 N.ar    1  UNL1       -0.2095
     19 N          65.6789   92.6906   16.7075 N.ar    1  UNL1       -0.1484
     20 C          70.2976   95.0793   16.0480 C.3     1  UNL1        0.0950
     21 C          69.2884   94.0258   15.6992 C.2     1  UNL1        0.2277
     22 O          69.6742   92.8843   14.8056 O.2     1  UNL1       -0.2747
     23 N          67.8936   94.1136   16.2439 N.am    1  UNL1       -0.2679
     24 H          67.6405   94.8628   16.8303 H       1  UNL1        0.1563
     25 C          63.3053   84.4330   12.9844 C.3     1  UNL1        0.4187
     26 F          63.4722   82.9866   13.3448 F       1  UNL1       -0.1659
     27 F          62.2014   84.5568   13.9925 F       1  UNL1       -0.1659
     28 F          64.4091   84.3093   11.9764 F       1  UNL1       -0.1659
     29 C          60.6953   85.9752    7.8957 C.3     1  UNL1        0.0759
     30 C          59.3072   86.4564    7.5933 C.3     1  UNL1        0.0215
     31 C          61.4150   85.0972    6.9153 C.3     1  UNL1        0.0182
     32 C          61.3814   84.1309    5.7685 C.3     1  UNL1        0.0017
     33 C          62.6951   84.5428    6.3640 C.3     1  UNL1        0.0017
@<TRIPOS>BOND
     1    20    21    1
     2    21    22    2
     3    21    23   am
     4    23    11    1
     5    11    12   ar
     6    12    13   ar
     7    13    14   ar
     8    14    15   ar
     9    15     1    1
    10     1     2   ar
    11     2     3   ar
    12     3     4   ar
    13     4     5   ar
    14     5    25    1
    15    25    26    1
    16    25    27    1
    17    25    28    1
    18     5     6   ar
    19     4     7    1
    20     7     8    2
    21     7     9   am
    22     9    29    1
    23    29    30    1
    24    29    31    1
    25    31    32    1
    26    32    33    1
    27     9    10    1
    28    15    16   ar
    29    16    17   ar
    30    17    18   ar
    31    18    19   ar
    32    19    11   ar
    33    18    13   ar
    34     6     1   ar
    35    33    31    1
    36    10     3    1
    37    23    24    1
@<TRIPOS>MOLECULE
*****
 33 37 0 0 0
SMALL
GASTEIGER

@<TRIPOS>ATOM
      1 C          62.9381   89.3393   12.4371 C.ar    1  UNL1        0.0174
      2 C          62.1113   90.0790   11.4276 C.ar    1  UNL1       -0.0010
      3 C          61.4078   89.3259   10.3376 C.ar    1  UNL1        0.0021
      4 C          61.5313   87.8332   10.2571 C.ar    1  UNL1        0.0551
      5 C          62.3582   87.0935   11.2667 C.ar    1  UNL1        0.0756
      6 C          63.0616   87.8466   12.3566 C.ar    1  UNL1        0.0055
      7 C          60.7292   87.3646    9.0795 C.2     1  UNL1        0.2489
      8 O          60.5736   85.9425    8.6283 O.2     1  UNL1       -0.2699
      9 N          60.1100   88.5677    8.4321 N.am    1  UNL1       -0.2736
     10 C          60.5294   89.7798    9.2097 C.3     1  UNL1        0.1205
     11 C          66.9589   93.0950   15.6753 C.ar    1  UNL1        0.1574
     12 C          66.7049   92.6375   14.2695 C.ar    1  UNL1        0.0750
     13 C          65.5241   91.7125   14.2892 C.ar    1  UNL1        0.1666
     14 N          64.8208   90.9595   13.1992 N.ar    1  UNL1       -0.2264
     15 C          63.6416   90.0924   13.5271 C.ar    1  UNL1        0.0845
     16 C          63.1658   89.9783   14.9451 C.ar    1  UNL1        0.0399
     17 C          63.8692   90.7313   16.0351 C.ar    1  UNL1        0.1037
     18 N          65.0484   91.5984   15.7072 N.ar    1  UNL1       -0.2095
     19 N          65.9351   92.4528   16.5638 N.ar    1  UNL1       -0.1484
     20 C          70.5288   94.7908   16.0355 C.3     1  UNL1        0.0950
     21 C          69.4419   93.8553   15.5955 C.2     1  UNL1        0.2277
     22 O          69.7511   92.7448   14.6357 O.2     1  UNL1       -0.2747
     23 N          68.0458   94.0304   16.1153 N.am    1  UNL1       -0.2679
     24 H          67.8429   94.7592   16.7452 H       1  UNL1        0.1563
     25 C          62.4817   85.6008   11.1862 C.3     1  UNL1        0.4187
     26 F          62.6052   84.1080   11.1057 F       1  UNL1       -0.1659
     27 F          61.8308   85.4744   12.5317 F       1  UNL1       -0.1659
     28 F          63.1326   85.7272    9.8407 F       1  UNL1       -0.1659
     29 C          59.2264   88.5599    7.2199 C.3     1  UNL1        0.0759
     30 C          58.3173   87.3951    6.9619 C.3     1  UNL1        0.0215
     31 C          59.2520   89.7170    6.2658 C.3     1  UNL1        0.0182
     32 C          60.0111   90.6208    5.3399 C.3     1  UNL1        0.0017
     33 C          58.5373   90.8174    5.5390 C.3     1  UNL1        0.0017
@<TRIPOS>BOND
     1    20    21    1
     2    21    22    2
     3    21    23   am
     4    23    11    1
     5    11    12   ar
     6    12    13   ar
     7    13    14   ar
     8    14    15   ar
     9    15     1    1
    10     1     2   ar
    11     2     3   ar
    12     3     4   ar
    13     4     5   ar
    14     5    25    1
    15    25    26    1
    16    25    27    1
    17    25    28    1
    18     5     6   ar
    19     4     7    1
    20     7     8    2
    21     7     9   am
    22     9    29    1
    23    29    30    1
    24    29    31    1
    25    31    32    1
    26    32    33    1
    27     9    10    1
    28    15    16   ar
    29    16    17   ar
    30    17    18   ar
    31    18    19   ar
    32    19    11   ar
    33    18    13   ar
    34     6     1   ar
    35    33    31    1
    36    10     3    1
    37    23    24    1
