@<TRIPOS>MOLECULE
*****
 38 41 0 0 0
SMALL
GASTEIGER

@<TRIPOS>ATOM
      1 C          64.1446   90.1273   14.9824 C.3     1  UNL1        0.1532
      2 N          66.3703   91.4085   14.5882 N.am    1  UNL1       -0.2945
      3 C          65.0227   91.3158   15.2404 C.2     1  UNL1        0.2413
      4 O          64.5532   92.4117   16.1508 O.2     1  UNL1       -0.2733
      5 H          66.6784   90.6892   13.9907 H       1  UNL1        0.1503
      6 C          67.2483   92.5969   14.8462 C.3     1  UNL1        0.1365
      7 C          68.2653   93.4817   15.5040 C.3     1  UNL1        0.0353
      8 C          67.9535   92.1352   16.0870 C.3     1  UNL1        0.0353
      9 N          66.4477   94.3458   12.5440 N.1     1  UNL1       -0.1943
     10 C          66.8480   93.4713   13.6951 C.1     1  UNL1        0.0896
     11 N          63.7818   89.7543   13.5756 N.am    1  UNL1       -0.2932
     12 C          62.3399   89.6404   13.1780 C.2     1  UNL1        0.2673
     13 O          61.2609   89.8995   14.1872 O.2     1  UNL1       -0.2684
     14 H          64.4900   89.5842   12.9132 H       1  UNL1        0.1502
     15 C          61.9770   89.2673   11.7712 C.ar    1  UNL1        0.1767
     16 C          61.4505   90.1987   10.7199 C.ar    1  UNL1        0.1476
     17 N          61.2250   89.4044    9.4676 N.ar    1  UNL1       -0.1445
     18 N          61.6123   87.9820    9.7449 N.ar    1  UNL1       -0.1462
     19 N          62.0770   87.8972   11.1686 N.ar    1  UNL1       -0.1417
     20 C          61.5463   86.8442    8.7698 C.ar    1  UNL1        0.1220
     21 C          62.7583   85.9949    8.5250 C.ar    1  UNL1        0.0241
     22 C          62.6924   84.8571    7.5499 C.ar    1  UNL1        0.0223
     23 C          61.4144   84.5684    6.8195 C.ar    1  UNL1        0.0990
     24 N          60.2024   85.4176    7.0643 N.ar    1  UNL1       -0.2407
     25 C          60.2684   86.5555    8.0394 C.ar    1  UNL1        0.1197
     26 C          63.6294   89.3120   16.1312 C.3     1  UNL1        0.0553
     27 C          63.5786   87.8165   16.0263 C.ar    1  UNL1       -0.0190
     28 C          62.7395   87.0254   16.9854 C.ar    1  UNL1       -0.0010
     29 C          62.6888   85.5300   16.8805 C.ar    1  UNL1        0.0377
     30 C          63.4772   84.8256   15.8164 C.ar    1  UNL1        0.1572
     31 C          64.3163   85.6167   14.8572 C.ar    1  UNL1        0.0915
     32 CL         65.1047   84.9123   13.7932 Cl      1  UNL1       -0.0791
     33 C          64.3671   87.1121   14.9622 C.ar    1  UNL1        0.0103
     34 O          63.4264   83.3301   15.7115 O.3     1  UNL1       -0.4036
     35 C          62.7373   82.6829   14.5469 C.3     1  UNL1        0.5753
     36 F          62.0482   82.0356   13.3823 F       1  UNL1       -0.1328
     37 F          63.9122   81.7695   14.3593 F       1  UNL1       -0.1328
     38 F          61.5624   83.5963   14.7346 F       1  UNL1       -0.1328
@<TRIPOS>BOND
     1     9    10    3
     2    10     6    1
     3     6     2    1
     4     2     3   am
     5     3     4    2
     6     3     1    1
     7     1    26    1
     8    26    27    1
     9    27    28   ar
    10    28    29   ar
    11    29    30   ar
    12    30    34    1
    13    34    35    1
    14    35    36    1
    15    35    37    1
    16    35    38    1
    17    30    31   ar
    18    31    32    1
    19    31    33   ar
    20     1    11    1
    21    11    12   am
    22    12    13    2
    23    12    15    1
    24    15    16   ar
    25    16    17   ar
    26    17    18   ar
    27    18    20    1
    28    20    21   ar
    29    21    22   ar
    30    22    23   ar
    31    23    24   ar
    32    24    25   ar
    33    18    19   ar
    34     6     7    1
    35     7     8    1
    36     8     6    1
    37    33    27   ar
    38    19    15   ar
    39    25    20   ar
    40     2     5    1
    41    11    14    1
@<TRIPOS>MOLECULE
*****
 38 41 0 0 0
SMALL
GASTEIGER

@<TRIPOS>ATOM
      1 C          64.2982   90.8368   12.9588 C.3     1  UNL1        0.1532
      2 N          66.2485   91.2874   14.6152 N.am    1  UNL1       -0.2945
      3 C          65.3674   91.7446   13.4907 C.2     1  UNL1        0.2413
      4 O          65.5554   93.1096   12.8979 O.2     1  UNL1       -0.2733
      5 H          66.1251   90.3915   15.0042 H       1  UNL1        0.1503
      6 C          67.3176   92.1952   15.1469 C.3     1  UNL1        0.1365
      7 C          68.0171   93.1786   16.0378 C.3     1  UNL1        0.0353
      8 C          66.6243   92.7281   16.3657 C.3     1  UNL1        0.0353
      9 N          69.4468   91.7601   13.0788 N.1     1  UNL1       -0.1943
     10 C          68.3822   91.9776   14.1129 C.1     1  UNL1        0.0896
     11 N          64.3263   89.3731   13.2856 N.am    1  UNL1       -0.2932
     12 C          63.6243   88.8644   14.5098 C.2     1  UNL1        0.2673
     13 O          62.8944   89.8193   15.4072 O.2     1  UNL1       -0.2684
     14 H          64.8053   88.7463   12.6967 H       1  UNL1        0.1502
     15 C          63.6524   87.4007   14.8366 C.ar    1  UNL1        0.1767
     16 C          63.8882   86.8044   16.1927 C.ar    1  UNL1        0.1476
     17 N          63.8311   85.3114   16.0589 N.ar    1  UNL1       -0.1445
     18 N          63.5600   84.9850   14.6202 N.ar    1  UNL1       -0.1462
     19 N          63.4495   86.2762   13.8647 N.ar    1  UNL1       -0.1417
     20 C          63.4233   83.6090   14.0389 C.ar    1  UNL1        0.1220
     21 C          62.4111   82.6548   14.6001 C.ar    1  UNL1        0.0241
     22 C          62.2745   81.2788   14.0188 C.ar    1  UNL1        0.0223
     23 C          63.1500   80.8570   12.8762 C.ar    1  UNL1        0.0990
     24 N          64.1622   81.8112   12.3150 N.ar    1  UNL1       -0.2407
     25 C          64.2989   83.1872   12.8963 C.ar    1  UNL1        0.1197
     26 C          63.2011   91.3927   12.1003 C.3     1  UNL1        0.0553
     27 C          62.2269   90.4661   11.4349 C.ar    1  UNL1       -0.0190
     28 C          62.5076   89.9472   10.0558 C.ar    1  UNL1       -0.0010
     29 C          61.5335   89.0207    9.3905 C.ar    1  UNL1        0.0377
     30 C          60.2787   88.6132   10.1042 C.ar    1  UNL1        0.1572
     31 C          59.9980   89.1321   11.4833 C.ar    1  UNL1        0.0915
     32 CL         58.7432   88.7246   12.1971 Cl      1  UNL1       -0.0791
     33 C          60.9721   90.0586   12.1486 C.ar    1  UNL1        0.0103
     34 O          59.3045   87.6867    9.4389 O.3     1  UNL1       -0.4036
     35 C          59.7897   86.6831    8.4352 C.3     1  UNL1        0.5753
     36 F          60.2749   85.6794    7.4315 F       1  UNL1       -0.1328
     37 F          59.0383   87.4013    7.3538 F       1  UNL1       -0.1328
     38 F          60.5411   85.9649    9.5166 F       1  UNL1       -0.1328
@<TRIPOS>BOND
     1     9    10    3
     2    10     6    1
     3     6     2    1
     4     2     3   am
     5     3     4    2
     6     3     1    1
     7     1    26    1
     8    26    27    1
     9    27    28   ar
    10    28    29   ar
    11    29    30   ar
    12    30    34    1
    13    34    35    1
    14    35    36    1
    15    35    37    1
    16    35    38    1
    17    30    31   ar
    18    31    32    1
    19    31    33   ar
    20     1    11    1
    21    11    12   am
    22    12    13    2
    23    12    15    1
    24    15    16   ar
    25    16    17   ar
    26    17    18   ar
    27    18    20    1
    28    20    21   ar
    29    21    22   ar
    30    22    23   ar
    31    23    24   ar
    32    24    25   ar
    33    18    19   ar
    34     6     7    1
    35     7     8    1
    36     8     6    1
    37    33    27   ar
    38    19    15   ar
    39    25    20   ar
    40     2     5    1
    41    11    14    1
@<TRIPOS>MOLECULE
*****
 38 41 0 0 0
SMALL
GASTEIGER

@<TRIPOS>ATOM
      1 C          62.9053   88.4327   12.2396 C.3     1  UNL1        0.1532
      2 N          62.6623   85.8485   12.1245 N.am    1  UNL1       -0.2945
      3 C          63.2522   87.0706   12.7636 C.2     1  UNL1        0.2413
      4 O          64.1889   86.9307   13.9268 O.2     1  UNL1       -0.2733
      5 H          62.0475   85.9403   11.3611 H       1  UNL1        0.1503
      6 C          63.0092   84.4865   12.6485 C.3     1  UNL1        0.1365
      7 C          63.5449   83.0860   12.6886 C.3     1  UNL1        0.0353
      8 C          63.6734   83.9027   11.4369 C.3     1  UNL1        0.0353
      9 N          61.9218   84.7082   15.4357 N.1     1  UNL1       -0.1943
     10 C          62.4656   84.5974   14.0421 C.1     1  UNL1        0.0896
     11 N          62.3117   88.5805   10.8700 N.am    1  UNL1       -0.2932
     12 C          60.8563   88.2930   10.6484 C.2     1  UNL1        0.2673
     13 O          59.9944   87.8577   11.7963 O.2     1  UNL1       -0.2684
     14 H          62.8774   88.8662   10.1166 H       1  UNL1        0.1502
     15 C          60.2627   88.4409    9.2788 C.ar    1  UNL1        0.1767
     16 C          59.5506   87.3704    8.5061 C.ar    1  UNL1        0.1476
     17 N          59.1248   87.9531    7.1912 N.ar    1  UNL1       -0.1445
     18 N          59.5737   89.3838    7.1511 N.ar    1  UNL1       -0.1462
     19 N          60.2770   89.6853    8.4413 N.ar    1  UNL1       -0.1417
     20 C          59.3574   90.3444    6.0195 C.ar    1  UNL1        0.1220
     21 C          60.5289   90.8513    5.2317 C.ar    1  UNL1        0.0241
     22 C          60.3125   91.8119    4.1001 C.ar    1  UNL1        0.0223
     23 C          58.9247   92.2655    3.7563 C.ar    1  UNL1        0.0990
     24 N          57.7532   91.7586    4.5442 N.ar    1  UNL1       -0.2407
     25 C          57.9696   90.7980    5.6758 C.ar    1  UNL1        0.1197
     26 C          63.1520   89.6468   13.0852 C.3     1  UNL1        0.0553
     27 C          64.0861   90.7179   12.6052 C.ar    1  UNL1       -0.0190
     28 C          63.8973   91.3239   11.2462 C.ar    1  UNL1       -0.0010
     29 C          64.8314   92.3949   10.7663 C.ar    1  UNL1        0.0377
     30 C          65.9543   92.8599   11.6455 C.ar    1  UNL1        0.1572
     31 C          66.1431   92.2539   13.0045 C.ar    1  UNL1        0.0915
     32 CL         67.2659   92.7189   13.8837 Cl      1  UNL1       -0.0791
     33 C          65.2090   91.1828   13.4844 C.ar    1  UNL1        0.0103
     34 O          66.8884   93.9310   11.1655 O.3     1  UNL1       -0.4036
     35 C          67.3718   93.9235    9.7456 C.3     1  UNL1        0.5753
     36 F          67.8552   93.9161    8.3256 F       1  UNL1       -0.1328
     37 F          66.7320   95.2615    9.5208 F       1  UNL1       -0.1328
     38 F          68.0115   92.5856    9.9704 F       1  UNL1       -0.1328
@<TRIPOS>BOND
     1     9    10    3
     2    10     6    1
     3     6     2    1
     4     2     3   am
     5     3     4    2
     6     3     1    1
     7     1    26    1
     8    26    27    1
     9    27    28   ar
    10    28    29   ar
    11    29    30   ar
    12    30    34    1
    13    34    35    1
    14    35    36    1
    15    35    37    1
    16    35    38    1
    17    30    31   ar
    18    31    32    1
    19    31    33   ar
    20     1    11    1
    21    11    12   am
    22    12    13    2
    23    12    15    1
    24    15    16   ar
    25    16    17   ar
    26    17    18   ar
    27    18    20    1
    28    20    21   ar
    29    21    22   ar
    30    22    23   ar
    31    23    24   ar
    32    24    25   ar
    33    18    19   ar
    34     6     7    1
    35     7     8    1
    36     8     6    1
    37    33    27   ar
    38    19    15   ar
    39    25    20   ar
    40     2     5    1
    41    11    14    1
@<TRIPOS>MOLECULE
*****
 38 41 0 0 0
SMALL
GASTEIGER

@<TRIPOS>ATOM
      1 C          62.4482   87.5733   12.2546 C.3     1  UNL1        0.1532
      2 N          62.4307   84.9790   12.1150 N.am    1  UNL1       -0.2945
      3 C          62.9654   86.2439   12.7185 C.2     1  UNL1        0.2413
      4 O          64.0173   86.1793   13.7859 O.2     1  UNL1       -0.2733
      5 H          61.7403   85.0214   11.4145 H       1  UNL1        0.1503
      6 C          62.9479   83.6497   12.5789 C.3     1  UNL1        0.1365
      7 C          63.1646   82.4472   13.4490 C.3     1  UNL1        0.0353
      8 C          62.2623   83.5534   13.9097 C.3     1  UNL1        0.0353
      9 N          64.6782   82.9187   10.2398 N.1     1  UNL1       -0.1943
     10 C          63.8130   83.2842   11.4094 C.1     1  UNL1        0.0896
     11 N          63.3813   88.7420   12.1386 N.am    1  UNL1       -0.2932
     12 C          63.3469   89.8341   13.1663 C.2     1  UNL1        0.2673
     13 O          62.3795   89.7575   14.3101 O.2     1  UNL1       -0.2684
     14 H          64.0162   88.7923   11.3879 H       1  UNL1        0.1502
     15 C          64.2800   91.0028   13.0503 C.ar    1  UNL1        0.1767
     16 C          65.0304   91.6473   14.1779 C.ar    1  UNL1        0.1476
     17 N          65.8407   92.7751   13.6107 N.ar    1  UNL1       -0.1445
     18 N          65.5910   92.8276   12.1326 N.ar    1  UNL1       -0.1462
     19 N          64.6265   91.7323   11.7861 N.ar    1  UNL1       -0.1417
     20 C          66.1991   93.8040   11.1698 C.ar    1  UNL1        0.1220
     21 C          66.9002   93.3072    9.9403 C.ar    1  UNL1        0.0241
     22 C          67.5083   94.2836    8.9775 C.ar    1  UNL1        0.0223
     23 C          67.4154   95.7567    9.2443 C.ar    1  UNL1        0.0990
     24 N          66.7143   96.2535   10.4739 N.ar    1  UNL1       -0.2407
     25 C          66.1062   95.2771   11.4366 C.ar    1  UNL1        0.1197
     26 C          60.9980   87.7340   11.9068 C.3     1  UNL1        0.0553
     27 C          60.5933   88.0179   10.4906 C.ar    1  UNL1       -0.0190
     28 C          60.4383   89.4352   10.0246 C.ar    1  UNL1       -0.0010
     29 C          60.0336   89.7191    8.6084 C.ar    1  UNL1        0.0377
     30 C          59.7840   88.5856    7.6582 C.ar    1  UNL1        0.1572
     31 C          59.9390   87.1683    8.1242 C.ar    1  UNL1        0.0915
     32 CL         59.6894   86.0348    7.1739 Cl      1  UNL1       -0.0791
     33 C          60.3437   86.8844    9.5403 C.ar    1  UNL1        0.0103
     34 O          59.3793   88.8695    6.2419 O.3     1  UNL1       -0.4036
     35 C          59.1344   90.2820    5.8007 C.3     1  UNL1        0.5753
     36 F          58.8895   91.6946    5.3594 F       1  UNL1       -0.1328
     37 F          60.5688   90.3986    5.3777 F       1  UNL1       -0.1328
     38 F          57.7001   90.1654    6.2237 F       1  UNL1       -0.1328
@<TRIPOS>BOND
     1     9    10    3
     2    10     6    1
     3     6     2    1
     4     2     3   am
     5     3     4    2
     6     3     1    1
     7     1    26    1
     8    26    27    1
     9    27    28   ar
    10    28    29   ar
    11    29    30   ar
    12    30    34    1
    13    34    35    1
    14    35    36    1
    15    35    37    1
    16    35    38    1
    17    30    31   ar
    18    31    32    1
    19    31    33   ar
    20     1    11    1
    21    11    12   am
    22    12    13    2
    23    12    15    1
    24    15    16   ar
    25    16    17   ar
    26    17    18   ar
    27    18    20    1
    28    20    21   ar
    29    21    22   ar
    30    22    23   ar
    31    23    24   ar
    32    24    25   ar
    33    18    19   ar
    34     6     7    1
    35     7     8    1
    36     8     6    1
    37    33    27   ar
    38    19    15   ar
    39    25    20   ar
    40     2     5    1
    41    11    14    1
@<TRIPOS>MOLECULE
*****
 38 41 0 0 0
SMALL
GASTEIGER

@<TRIPOS>ATOM
      1 C          62.7578   88.4713   12.3865 C.3     1  UNL1        0.1532
      2 N          62.7446   85.8755   12.2775 N.am    1  UNL1       -0.2945
      3 C          63.2508   87.1474   12.8907 C.2     1  UNL1        0.2413
      4 O          64.2501   87.0954   14.0082 O.2     1  UNL1       -0.2733
      5 H          62.0887   85.9097   11.5440 H       1  UNL1        0.1503
      6 C          63.2376   84.5517   12.7817 C.3     1  UNL1        0.1365
      7 C          63.9217   83.2169   12.8014 C.3     1  UNL1        0.0353
      8 C          63.9591   84.0606   11.5617 C.3     1  UNL1        0.0353
      9 N          62.1372   84.6143   15.5719 N.1     1  UNL1       -0.1943
     10 C          62.6874   84.5830   14.1767 C.1     1  UNL1        0.0896
     11 N          62.2294   88.5916   10.9878 N.am    1  UNL1       -0.2932
     12 C          60.7760   88.3440   10.7112 C.2     1  UNL1        0.2673
     13 O          59.8510   87.9763   11.8334 O.2     1  UNL1       -0.2684
     14 H          62.8364   88.8330   10.2513 H       1  UNL1        0.1502
     15 C          60.2476   88.4643    9.3126 C.ar    1  UNL1        0.1767
     16 C          59.6627   87.3529    8.4924 C.ar    1  UNL1        0.1476
     17 N          59.2649   87.9188    7.1614 N.ar    1  UNL1       -0.1445
     18 N          59.6039   89.3800    7.1589 N.ar    1  UNL1       -0.1462
     19 N          60.2113   89.7172    8.4884 N.ar    1  UNL1       -0.1417
     20 C          59.3757   90.3362    6.0260 C.ar    1  UNL1        0.1220
     21 C          57.9821   90.7693    5.6792 C.ar    1  UNL1        0.0241
     22 C          57.7539   91.7255    4.5463 C.ar    1  UNL1        0.0223
     23 C          58.9194   92.2485    3.7600 C.ar    1  UNL1        0.0990
     24 N          60.3130   91.8154    4.1068 N.ar    1  UNL1       -0.2407
     25 C          60.5412   90.8592    5.2397 C.ar    1  UNL1        0.1197
     26 C          62.7931   89.6749   13.2809 C.3     1  UNL1        0.0553
     27 C          64.0406   90.5026   13.3756 C.ar    1  UNL1       -0.0190
     28 C          64.9767   90.3187   14.5330 C.ar    1  UNL1       -0.0010
     29 C          66.2240   91.1465   14.6276 C.ar    1  UNL1        0.0377
     30 C          66.5352   92.1581   13.5647 C.ar    1  UNL1        0.1572
     31 C          65.5991   92.3420   12.4072 C.ar    1  UNL1        0.0915
     32 CL         65.9103   93.3536   11.3443 Cl      1  UNL1       -0.0791
     33 C          64.3518   91.5143   12.3127 C.ar    1  UNL1        0.0103
     34 O          67.7826   92.9858   13.6594 O.3     1  UNL1       -0.4036
     35 C          68.5118   93.0968   14.9655 C.3     1  UNL1        0.5753
     36 F          69.2410   93.2077   16.2716 F       1  UNL1       -0.1328
     37 F          67.4006   93.9418   15.5141 F       1  UNL1       -0.1328
     38 F          69.6230   92.2517   14.4169 F       1  UNL1       -0.1328
@<TRIPOS>BOND
     1     9    10    3
     2    10     6    1
     3     6     2    1
     4     2     3   am
     5     3     4    2
     6     3     1    1
     7     1    26    1
     8    26    27    1
     9    27    28   ar
    10    28    29   ar
    11    29    30   ar
    12    30    34    1
    13    34    35    1
    14    35    36    1
    15    35    37    1
    16    35    38    1
    17    30    31   ar
    18    31    32    1
    19    31    33   ar
    20     1    11    1
    21    11    12   am
    22    12    13    2
    23    12    15    1
    24    15    16   ar
    25    16    17   ar
    26    17    18   ar
    27    18    20    1
    28    20    21   ar
    29    21    22   ar
    30    22    23   ar
    31    23    24   ar
    32    24    25   ar
    33    18    19   ar
    34     6     7    1
    35     7     8    1
    36     8     6    1
    37    33    27   ar
    38    19    15   ar
    39    25    20   ar
    40     2     5    1
    41    11    14    1
@<TRIPOS>MOLECULE
*****
 38 41 0 0 0
SMALL
GASTEIGER

@<TRIPOS>ATOM
      1 C          63.6861   90.1684   13.3262 C.3     1  UNL1        0.1532
      2 N          65.9077   91.5117   13.4276 N.am    1  UNL1       -0.2945
      3 C          64.6049   91.1068   14.0511 C.2     1  UNL1        0.2413
      4 O          64.2209   91.6401   15.3994 O.2     1  UNL1       -0.2733
      5 H          66.1597   91.1617   12.5426 H       1  UNL1        0.1503
      6 C          66.8264   92.4501   14.1524 C.3     1  UNL1        0.1365
      7 C          67.8435   92.9473   15.1363 C.3     1  UNL1        0.0353
      8 C          67.4288   91.5058   15.1502 C.3     1  UNL1        0.0353
      9 N          66.2597   94.9903   12.6604 N.1     1  UNL1       -0.1943
     10 C          66.5431   93.7201   13.4064 C.1     1  UNL1        0.0896
     11 N          63.9962   88.7015   13.2801 N.am    1  UNL1       -0.2932
     12 C          63.8780   87.8705   14.5233 C.2     1  UNL1        0.2673
     13 O          63.4496   88.5063   15.8126 O.2     1  UNL1       -0.2684
     14 H          64.2774   88.2842   12.4339 H       1  UNL1        0.1502
     15 C          64.1881   86.4036   14.4772 C.ar    1  UNL1        0.1767
     16 C          65.3767   85.7337   15.1004 C.ar    1  UNL1        0.1476
     17 N          65.2872   84.2651   14.8081 N.ar    1  UNL1       -0.1445
     18 N          64.0433   84.0274   14.0044 N.ar    1  UNL1       -0.1462
     19 N          63.3639   85.3491   13.7998 N.ar    1  UNL1       -0.1417
     20 C          63.5629   82.7010   13.4946 C.ar    1  UNL1        0.1220
     21 C          63.3716   82.4880   12.0221 C.ar    1  UNL1        0.0241
     22 C          62.8913   81.1616   11.5124 C.ar    1  UNL1        0.0223
     23 C          62.6023   80.0482   12.4750 C.ar    1  UNL1        0.0990
     24 N          62.7936   80.2612   13.9475 N.ar    1  UNL1       -0.2407
     25 C          63.2740   81.5876   14.4573 C.ar    1  UNL1        0.1197
     26 C          62.4573   90.6969   12.6476 C.3     1  UNL1        0.0553
     27 C          61.9157   90.0050   11.4318 C.ar    1  UNL1       -0.0190
     28 C          60.7126   90.5585   10.7274 C.ar    1  UNL1       -0.0010
     29 C          60.1711   89.8667    9.5117 C.ar    1  UNL1        0.0377
     30 C          60.8326   88.6214    9.0003 C.ar    1  UNL1        0.1572
     31 C          62.0357   88.0679    9.7047 C.ar    1  UNL1        0.0915
     32 CL         62.6973   86.8226    9.1933 Cl      1  UNL1       -0.0791
     33 C          62.5773   88.7597   10.9204 C.ar    1  UNL1        0.0103
     34 O          60.2910   87.9295    7.7845 O.3     1  UNL1       -0.4036
     35 C          59.0466   87.0984    7.8865 C.3     1  UNL1        0.5753
     36 F          57.8020   86.2672    7.9885 F       1  UNL1       -0.1328
     37 F          58.2277   88.2678    7.4263 F       1  UNL1       -0.1328
     38 F          59.8654   85.9289    8.3467 F       1  UNL1       -0.1328
@<TRIPOS>BOND
     1     9    10    3
     2    10     6    1
     3     6     2    1
     4     2     3   am
     5     3     4    2
     6     3     1    1
     7     1    26    1
     8    26    27    1
     9    27    28   ar
    10    28    29   ar
    11    29    30   ar
    12    30    34    1
    13    34    35    1
    14    35    36    1
    15    35    37    1
    16    35    38    1
    17    30    31   ar
    18    31    32    1
    19    31    33   ar
    20     1    11    1
    21    11    12   am
    22    12    13    2
    23    12    15    1
    24    15    16   ar
    25    16    17   ar
    26    17    18   ar
    27    18    20    1
    28    20    21   ar
    29    21    22   ar
    30    22    23   ar
    31    23    24   ar
    32    24    25   ar
    33    18    19   ar
    34     6     7    1
    35     7     8    1
    36     8     6    1
    37    33    27   ar
    38    19    15   ar
    39    25    20   ar
    40     2     5    1
    41    11    14    1
@<TRIPOS>MOLECULE
*****
 38 41 0 0 0
SMALL
GASTEIGER

@<TRIPOS>ATOM
      1 C          62.0400   89.9522   10.2211 C.3     1  UNL1        0.1532
      2 N          60.8535   89.2986    8.0041 N.am    1  UNL1       -0.2945
      3 C          60.8070   89.9226    9.3672 C.2     1  UNL1        0.2413
      4 O          59.5275   90.5170    9.8767 O.2     1  UNL1       -0.2733
      5 H          61.6933   88.9084    7.6697 H       1  UNL1        0.1503
      6 C          59.6206   89.2690    7.1503 C.3     1  UNL1        0.1365
      7 C          58.5966   89.6895    6.1381 C.3     1  UNL1        0.0353
      8 C          59.7941   90.5547    6.3974 C.3     1  UNL1        0.0353
      9 N          58.4169   86.6770    8.0630 N.1     1  UNL1       -0.1943
     10 C          59.0188   87.9730    7.6066 C.1     1  UNL1        0.0896
     11 N          62.3016   88.8455   11.1992 N.am    1  UNL1       -0.2932
     12 C          62.3783   87.4254   10.7221 C.2     1  UNL1        0.2673
     13 O          62.1932   87.1121    9.2669 O.2     1  UNL1       -0.2684
     14 H          62.4231   89.0512   12.1543 H       1  UNL1        0.1502
     15 C          62.6400   86.3187   11.7002 C.ar    1  UNL1        0.1767
     16 C          63.2769   86.4673   13.0501 C.ar    1  UNL1        0.1476
     17 N          63.3412   85.1095   13.6843 N.ar    1  UNL1       -0.1445
     18 N          62.7441   84.1217   12.7264 N.ar    1  UNL1       -0.1462
     19 N          62.3106   84.8690   11.5001 N.ar    1  UNL1       -0.1417
     20 C          62.6048   82.6458   12.9546 C.ar    1  UNL1        0.1220
     21 C          62.9161   81.6829   11.8474 C.ar    1  UNL1        0.0241
     22 C          62.7768   80.2070   12.0756 C.ar    1  UNL1        0.0223
     23 C          62.3261   79.6938   13.4111 C.ar    1  UNL1        0.0990
     24 N          62.0148   80.6567   14.5183 N.ar    1  UNL1       -0.2407
     25 C          62.1541   82.1326   14.2901 C.ar    1  UNL1        0.1197
     26 C          63.0112   91.0885   10.0968 C.3     1  UNL1        0.0553
     27 C          63.8631   91.4786   11.2682 C.ar    1  UNL1       -0.0190
     28 C          64.9815   92.4617   11.0878 C.ar    1  UNL1       -0.0010
     29 C          65.8334   92.8518   12.2592 C.ar    1  UNL1        0.0377
     30 C          65.5668   92.2587   13.6109 C.ar    1  UNL1        0.1572
     31 C          64.4484   91.2756   13.7913 C.ar    1  UNL1        0.0915
     32 CL         64.1818   90.6825   15.1430 Cl      1  UNL1       -0.0791
     33 C          63.5965   90.8855   12.6199 C.ar    1  UNL1        0.0103
     34 O          66.4187   92.6488   14.7824 O.3     1  UNL1       -0.4036
     35 C          67.9134   92.5739   14.6807 C.3     1  UNL1        0.5753
     36 F          69.4081   92.4991   14.5791 F       1  UNL1       -0.1328
     37 F          68.0281   93.8827   15.4044 F       1  UNL1       -0.1328
     38 F          67.7986   91.2651   13.9570 F       1  UNL1       -0.1328
@<TRIPOS>BOND
     1     9    10    3
     2    10     6    1
     3     6     2    1
     4     2     3   am
     5     3     4    2
     6     3     1    1
     7     1    26    1
     8    26    27    1
     9    27    28   ar
    10    28    29   ar
    11    29    30   ar
    12    30    34    1
    13    34    35    1
    14    35    36    1
    15    35    37    1
    16    35    38    1
    17    30    31   ar
    18    31    32    1
    19    31    33   ar
    20     1    11    1
    21    11    12   am
    22    12    13    2
    23    12    15    1
    24    15    16   ar
    25    16    17   ar
    26    17    18   ar
    27    18    20    1
    28    20    21   ar
    29    21    22   ar
    30    22    23   ar
    31    23    24   ar
    32    24    25   ar
    33    18    19   ar
    34     6     7    1
    35     7     8    1
    36     8     6    1
    37    33    27   ar
    38    19    15   ar
    39    25    20   ar
    40     2     5    1
    41    11    14    1
@<TRIPOS>MOLECULE
*****
 38 41 0 0 0
SMALL
GASTEIGER

@<TRIPOS>ATOM
      1 C          63.1575   88.1296   12.3014 C.3     1  UNL1        0.1532
      2 N          62.3959   87.5458    9.8870 N.am    1  UNL1       -0.2945
      3 C          62.0936   87.6651   11.3513 C.2     1  UNL1        0.2413
      4 O          60.7276   87.3197   11.8657 O.2     1  UNL1       -0.2733
      5 H          63.2925   87.7725    9.5493 H       1  UNL1        0.1503
      6 C          61.3321   87.0813    8.9370 C.3     1  UNL1        0.1365
      7 C          60.5418   86.1764    8.0388 C.3     1  UNL1        0.0353
      8 C          61.7504   85.6522    8.7562 C.3     1  UNL1        0.0353
      9 N          59.7565   89.6168    8.6389 N.1     1  UNL1       -0.1943
     10 C          60.5443   88.3490    8.7880 C.1     1  UNL1        0.0896
     11 N          63.9451   89.3694   11.9973 N.am    1  UNL1       -0.2932
     12 C          63.9989   90.4876   12.9958 C.2     1  UNL1        0.2673
     13 O          63.2650   90.3659   14.2983 O.2     1  UNL1       -0.2684
     14 H          64.4268   89.4493   11.1424 H       1  UNL1        0.1502
     15 C          64.7865   91.7274   12.6917 C.ar    1  UNL1        0.1767
     16 C          65.6152   92.5074   13.6689 C.ar    1  UNL1        0.1476
     17 N          66.2246   93.6670   12.9381 N.ar    1  UNL1       -0.1445
     18 N          65.7726   93.6037   11.5093 N.ar    1  UNL1       -0.1462
     19 N          64.8837   92.4050   11.3569 N.ar    1  UNL1       -0.1417
     20 C          66.1440   94.5695   10.4233 C.ar    1  UNL1        0.1220
     21 C          67.2200   94.2150    9.4401 C.ar    1  UNL1        0.0241
     22 C          67.5915   95.1808    8.3542 C.ar    1  UNL1        0.0223
     23 C          66.8870   96.5011    8.2515 C.ar    1  UNL1        0.0990
     24 N          65.8111   96.8556    9.2348 N.ar    1  UNL1       -0.2407
     25 C          65.4396   95.8898   10.3207 C.ar    1  UNL1        0.1197
     26 C          63.4336   87.3544   13.5554 C.3     1  UNL1        0.0553
     27 C          63.4906   85.8560   13.5137 C.ar    1  UNL1       -0.0190
     28 C          63.7573   85.0804   14.7696 C.ar    1  UNL1       -0.0010
     29 C          63.8143   83.5821   14.7278 C.ar    1  UNL1        0.0377
     30 C          63.6046   82.8594   13.4302 C.ar    1  UNL1        0.1572
     31 C          63.3380   83.6350   12.1743 C.ar    1  UNL1        0.0915
     32 CL         63.1283   82.9124   10.8767 Cl      1  UNL1       -0.0791
     33 C          63.2810   85.1333   12.2161 C.ar    1  UNL1        0.0103
     34 O          63.6616   81.3610   13.3885 O.3     1  UNL1       -0.4036
     35 C          62.3955   80.5600   13.4604 C.3     1  UNL1        0.5753
     36 F          61.1293   79.7589   13.5323 F       1  UNL1       -0.1328
     37 F          62.7999   79.8099   12.2261 F       1  UNL1       -0.1328
     38 F          61.9910   81.3102   14.6947 F       1  UNL1       -0.1328
@<TRIPOS>BOND
     1     9    10    3
     2    10     6    1
     3     6     2    1
     4     2     3   am
     5     3     4    2
     6     3     1    1
     7     1    26    1
     8    26    27    1
     9    27    28   ar
    10    28    29   ar
    11    29    30   ar
    12    30    34    1
    13    34    35    1
    14    35    36    1
    15    35    37    1
    16    35    38    1
    17    30    31   ar
    18    31    32    1
    19    31    33   ar
    20     1    11    1
    21    11    12   am
    22    12    13    2
    23    12    15    1
    24    15    16   ar
    25    16    17   ar
    26    17    18   ar
    27    18    20    1
    28    20    21   ar
    29    21    22   ar
    30    22    23   ar
    31    23    24   ar
    32    24    25   ar
    33    18    19   ar
    34     6     7    1
    35     7     8    1
    36     8     6    1
    37    33    27   ar
    38    19    15   ar
    39    25    20   ar
    40     2     5    1
    41    11    14    1
@<TRIPOS>MOLECULE
*****
 38 41 0 0 0
SMALL
GASTEIGER

@<TRIPOS>ATOM
      1 C          61.8576   88.4449   10.4437 C.3     1  UNL1        0.1532
      2 N          60.2090   89.3013    8.6274 N.am    1  UNL1       -0.2945
      3 C          61.1502   88.2496    9.1354 C.2     1  UNL1        0.2413
      4 O          61.3841   87.0026    8.3352 O.2     1  UNL1       -0.2733
      5 H          60.0555   90.1197    9.1526 H       1  UNL1        0.1503
      6 C          59.5017   89.1060    7.3192 C.3     1  UNL1        0.1365
      7 C          59.0080   89.3787    5.9293 C.3     1  UNL1        0.0353
      8 C          59.8712   90.3859    6.6297 C.3     1  UNL1        0.0353
      9 N          58.2714   86.4105    7.7894 N.1     1  UNL1       -0.1943
     10 C          58.8866   87.7583    7.5543 C.1     1  UNL1        0.0896
     11 N          62.8962   89.5183   10.5818 N.am    1  UNL1       -0.2932
     12 C          63.1003   90.1990   11.9028 C.2     1  UNL1        0.2673
     13 O          62.2657   89.8063   13.0857 O.2     1  UNL1       -0.2684
     14 H          63.4440   89.7760    9.8054 H       1  UNL1        0.1502
     15 C          64.1389   91.2723   12.0409 C.ar    1  UNL1        0.1767
     16 C          64.9907   91.5248   13.2496 C.ar    1  UNL1        0.1476
     17 N          65.8863   92.6902   12.9503 N.ar    1  UNL1       -0.1445
     18 N          65.5882   93.1581   11.5566 N.ar    1  UNL1       -0.1462
     19 N          64.5082   92.2818   10.9946 N.ar    1  UNL1       -0.1417
     20 C          66.2531   94.3014   10.8492 C.ar    1  UNL1        0.1220
     21 C          65.9719   95.7121   11.2745 C.ar    1  UNL1        0.0241
     22 C          66.6368   96.8555   10.5670 C.ar    1  UNL1        0.0223
     23 C          67.5831   96.5881    9.4343 C.ar    1  UNL1        0.0990
     24 N          67.8644   95.1774    9.0090 N.ar    1  UNL1       -0.2407
     25 C          67.1994   94.0341    9.7165 C.ar    1  UNL1        0.1197
     26 C          61.5263   87.5668   11.6138 C.3     1  UNL1        0.0553
     27 C          62.1957   86.2328   11.7637 C.ar    1  UNL1       -0.0190
     28 C          61.9234   85.1413   10.7715 C.ar    1  UNL1       -0.0010
     29 C          62.5928   83.8074   10.9214 C.ar    1  UNL1        0.0377
     30 C          63.5345   83.5649   12.0636 C.ar    1  UNL1        0.1572
     31 C          63.8067   84.6564   13.0558 C.ar    1  UNL1        0.0915
     32 CL         64.7484   84.4140   14.1979 Cl      1  UNL1       -0.0791
     33 C          63.1374   85.9903   12.9058 C.ar    1  UNL1        0.0103
     34 O          64.2039   82.2309   12.2135 O.3     1  UNL1       -0.4036
     35 C          63.3951   81.0235   12.5846 C.3     1  UNL1        0.5753
     36 F          62.5862   79.8159   12.9559 F       1  UNL1       -0.1328
     37 F          63.8028   81.1910   14.0184 F       1  UNL1       -0.1328
     38 F          62.9873   80.8559   11.1509 F       1  UNL1       -0.1328
@<TRIPOS>BOND
     1     9    10    3
     2    10     6    1
     3     6     2    1
     4     2     3   am
     5     3     4    2
     6     3     1    1
     7     1    26    1
     8    26    27    1
     9    27    28   ar
    10    28    29   ar
    11    29    30   ar
    12    30    34    1
    13    34    35    1
    14    35    36    1
    15    35    37    1
    16    35    38    1
    17    30    31   ar
    18    31    32    1
    19    31    33   ar
    20     1    11    1
    21    11    12   am
    22    12    13    2
    23    12    15    1
    24    15    16   ar
    25    16    17   ar
    26    17    18   ar
    27    18    20    1
    28    20    21   ar
    29    21    22   ar
    30    22    23   ar
    31    23    24   ar
    32    24    25   ar
    33    18    19   ar
    34     6     7    1
    35     7     8    1
    36     8     6    1
    37    33    27   ar
    38    19    15   ar
    39    25    20   ar
    40     2     5    1
    41    11    14    1
