@<TRIPOS>MOLECULE
*****
 24 25 0 0 0
SMALL
GASTEIGER

@<TRIPOS>ATOM
      1 C          64.3448   91.7483   12.5153 C.ar    1  UNL1        0.1466
      2 N          64.2596   91.2557   13.9295 N.ar    1  UNL1       -0.2017
      3 C          63.3896   90.0803   14.2632 C.ar    1  UNL1        0.2354
      4 N          62.6047   89.3974   13.1827 N.ar    1  UNL1       -0.2015
      5 C          62.6899   89.8899   11.7685 C.ar    1  UNL1        0.1499
      6 C          63.5599   91.0654   11.4348 C.ar    1  UNL1        0.1055
      7 N          63.6451   91.5579   10.0204 N.pl3   1  UNL1       -0.3526
      8 H          63.1299   91.1096    9.3113 H       1  UNL1        0.1425
      9 H          64.2161   92.3294    9.8014 H       1  UNL1        0.1425
     10 N          61.9050   89.2070   10.6879 N.pl3   1  UNL1       -0.2870
     11 C          62.2760   87.8199   10.2539 C.3     1  UNL1        0.1243
     12 C          61.4911   87.1370    9.1733 C.3     1  UNL1        0.1636
     13 O          60.3352   87.8412    8.5267 O.3     1  UNL1       -0.3501
     14 C          59.9643   89.2283    8.9607 C.3     1  UNL1        0.1636
     15 C          60.7491   89.9112   10.0413 C.3     1  UNL1        0.1243
     16 N          65.2148   92.9237   12.1816 N.pl3   1  UNL1       -0.3170
     17 H          64.8825   93.8390   12.3267 H       1  UNL1        0.1482
     18 C          66.5910   92.7046   11.6267 C.3     1  UNL1        0.0881
     19 C          67.9448   92.2638   10.0541 C.3     1  UNL1        0.0017
     20 C          67.0083   93.3944   10.3618 C.3     1  UNL1        0.0180
     21 C          66.0719   94.5251   10.6694 C.3     1  UNL1        0.0017
     22 C          67.4256   94.0842    9.0968 C.3     1  UNL1        0.0017
     23 C          63.3044   89.5878   15.6776 C.1     1  UNL1        0.1400
     24 N          63.2193   89.0952   17.0918 N.1     1  UNL1       -0.1876
@<TRIPOS>BOND
     1    19    20    1
     2    20    21    1
     3    20    22    1
     4    20    18    1
     5    18    16    1
     6    16     1    1
     7     1     2   ar
     8     2     3   ar
     9     3    23    1
    10    23    24    3
    11     3     4   ar
    12     4     5   ar
    13     5    10    1
    14    10    11    1
    15    11    12    1
    16    12    13    1
    17    13    14    1
    18    14    15    1
    19     5     6   ar
    20     6     7    1
    21     6     1   ar
    22    15    10    1
    23    16    17    1
    24     7     8    1
    25     7     9    1
@<TRIPOS>MOLECULE
*****
 24 25 0 0 0
SMALL
GASTEIGER

@<TRIPOS>ATOM
      1 C          63.9450   90.6188   13.2589 C.ar    1  UNL1        0.1466
      2 N          62.8161   90.1367   12.3969 N.ar    1  UNL1       -0.2017
      3 C          62.7064   90.6023   10.9752 C.ar    1  UNL1        0.2354
      4 N          63.7255   91.5500   10.4155 N.ar    1  UNL1       -0.2015
      5 C          64.8544   92.0320   11.2776 C.ar    1  UNL1        0.1499
      6 C          64.9641   91.5665   12.6993 C.ar    1  UNL1        0.1055
      7 N          66.0931   92.0486   13.5613 N.pl3   1  UNL1       -0.3526
      8 H          66.7620   92.6706   13.1940 H       1  UNL1        0.1425
      9 H          66.1651   91.7430   14.4944 H       1  UNL1        0.1425
     10 N          65.8736   92.9797   10.7179 N.pl3   1  UNL1       -0.2870
     11 C          65.6705   94.4604   10.8451 C.3     1  UNL1        0.1243
     12 C          66.6897   95.4081   10.2855 C.3     1  UNL1        0.1636
     13 O          67.9121   94.8750    9.5987 O.3     1  UNL1       -0.3501
     14 C          68.1152   93.3942    9.4716 C.3     1  UNL1        0.1636
     15 C          67.0960   92.4466   10.0312 C.3     1  UNL1        0.1243
     16 N          64.0547   90.1533   14.6806 N.pl3   1  UNL1       -0.3170
     17 H          64.0034   90.8045   15.4172 H       1  UNL1        0.1482
     18 C          64.2427   88.6956   14.9801 C.3     1  UNL1        0.0881
     19 C          63.1121   89.4337   16.6162 C.3     1  UNL1        0.0017
     20 C          63.5402   88.0737   16.1504 C.3     1  UNL1        0.0180
     21 C          63.9683   86.7136   15.6847 C.3     1  UNL1        0.0017
     22 C          62.8378   87.4517   17.3208 C.3     1  UNL1        0.0017
     23 C          61.5774   90.1202   10.1131 C.1     1  UNL1        0.1400
     24 N          60.4485   89.6380    9.2511 N.1     1  UNL1       -0.1876
@<TRIPOS>BOND
     1    19    20    1
     2    20    21    1
     3    20    22    1
     4    20    18    1
     5    18    16    1
     6    16     1    1
     7     1     2   ar
     8     2     3   ar
     9     3    23    1
    10    23    24    3
    11     3     4   ar
    12     4     5   ar
    13     5    10    1
    14    10    11    1
    15    11    12    1
    16    12    13    1
    17    13    14    1
    18    14    15    1
    19     5     6   ar
    20     6     7    1
    21     6     1   ar
    22    15    10    1
    23    16    17    1
    24     7     8    1
    25     7     9    1
@<TRIPOS>MOLECULE
*****
 24 25 0 0 0
SMALL
GASTEIGER

@<TRIPOS>ATOM
      1 C          64.8321   91.6727   12.7525 C.ar    1  UNL1        0.1466
      2 N          65.6993   91.6328   13.9757 N.ar    1  UNL1       -0.2017
      3 C          66.8948   92.5332   14.0772 C.ar    1  UNL1        0.2354
      4 N          67.2230   93.4734   12.9555 N.ar    1  UNL1       -0.2015
      5 C          66.3557   93.5132   11.7323 C.ar    1  UNL1        0.1499
      6 C          65.1603   92.6129   11.6308 C.ar    1  UNL1        0.1055
      7 N          64.2930   92.6527   10.4076 N.pl3   1  UNL1       -0.3526
      8 H          64.5084   93.2698    9.6713 H       1  UNL1        0.1425
      9 H          63.5084   92.0618   10.3409 H       1  UNL1        0.1425
     10 N          66.6839   94.4534   10.6105 N.pl3   1  UNL1       -0.2870
     11 C          66.3255   95.9058   10.7201 C.3     1  UNL1        0.1243
     12 C          66.6536   96.8461    9.5983 C.3     1  UNL1        0.1636
     13 O          67.3402   96.3338    8.3669 O.3     1  UNL1       -0.3501
     14 C          67.6986   94.8813    8.2574 C.3     1  UNL1        0.1636
     15 C          67.3704   93.9412    9.3792 C.3     1  UNL1        0.1243
     16 N          63.6367   90.7723   12.6511 N.pl3   1  UNL1       -0.3170
     17 H          63.1798   90.6562   11.7868 H       1  UNL1        0.1482
     18 C          63.1373   90.0488   13.8664 C.3     1  UNL1        0.0881
     19 C          63.6309   88.2689   12.8234 C.3     1  UNL1        0.0017
     20 C          63.7315   88.7256   14.2486 C.3     1  UNL1        0.0180
     21 C          63.8321   89.1824   15.6738 C.3     1  UNL1        0.0017
     22 C          64.3257   87.4024   14.6307 C.3     1  UNL1        0.0017
     23 C          67.7620   92.4933   15.3005 C.1     1  UNL1        0.1400
     24 N          68.6292   92.4535   16.5237 N.1     1  UNL1       -0.1876
@<TRIPOS>BOND
     1    19    20    1
     2    20    21    1
     3    20    22    1
     4    20    18    1
     5    18    16    1
     6    16     1    1
     7     1     2   ar
     8     2     3   ar
     9     3    23    1
    10    23    24    3
    11     3     4   ar
    12     4     5   ar
    13     5    10    1
    14    10    11    1
    15    11    12    1
    16    12    13    1
    17    13    14    1
    18    14    15    1
    19     5     6   ar
    20     6     7    1
    21     6     1   ar
    22    15    10    1
    23    16    17    1
    24     7     8    1
    25     7     9    1
@<TRIPOS>MOLECULE
*****
 24 25 0 0 0
SMALL
GASTEIGER

@<TRIPOS>ATOM
      1 C          62.7774   88.2930   11.8436 C.ar    1  UNL1        0.1466
      2 N          63.0151   86.8960   12.3353 N.ar    1  UNL1       -0.2017
      3 C          63.7613   86.6685   13.6164 C.ar    1  UNL1        0.2354
      4 N          64.2699   87.8381   14.4059 N.ar    1  UNL1       -0.2015
      5 C          64.0323   89.2351   13.9143 C.ar    1  UNL1        0.1499
      6 C          63.2860   89.4626   12.6331 C.ar    1  UNL1        0.1055
      7 N          63.0484   90.8597   12.1415 N.pl3   1  UNL1       -0.3526
      8 H          63.3822   91.6274   12.6597 H       1  UNL1        0.1425
      9 H          62.5586   91.0090   11.3006 H       1  UNL1        0.1425
     10 N          64.5409   90.4048   14.7038 N.pl3   1  UNL1       -0.2870
     11 C          65.7999   91.1032   14.2831 C.3     1  UNL1        0.1243
     12 C          66.3086   92.2728   15.0726 C.3     1  UNL1        0.1636
     13 O          65.5580   92.7441   16.2828 O.3     1  UNL1       -0.3501
     14 C          64.2989   92.0457   16.7035 C.3     1  UNL1        0.1636
     15 C          63.7904   90.8761   15.9140 C.3     1  UNL1        0.1243
     16 N          62.0312   88.5205   10.5624 N.pl3   1  UNL1       -0.3170
     17 H          62.2312   89.3103   10.0098 H       1  UNL1        0.1482
     18 C          60.9801   87.5446   10.1233 C.3     1  UNL1        0.0881
     19 C          60.2467   86.3405    8.5383 C.3     1  UNL1        0.0017
     20 C          60.1936   87.8019    8.8722 C.3     1  UNL1        0.0180
     21 C          60.1405   89.2633    9.2061 C.3     1  UNL1        0.0017
     22 C          59.4071   88.0592    7.6211 C.3     1  UNL1        0.0017
     23 C          63.9990   85.2714   14.1081 C.1     1  UNL1        0.1400
     24 N          64.2366   83.8744   14.5997 N.1     1  UNL1       -0.1876
@<TRIPOS>BOND
     1    19    20    1
     2    20    21    1
     3    20    22    1
     4    20    18    1
     5    18    16    1
     6    16     1    1
     7     1     2   ar
     8     2     3   ar
     9     3    23    1
    10    23    24    3
    11     3     4   ar
    12     4     5   ar
    13     5    10    1
    14    10    11    1
    15    11    12    1
    16    12    13    1
    17    13    14    1
    18    14    15    1
    19     5     6   ar
    20     6     7    1
    21     6     1   ar
    22    15    10    1
    23    16    17    1
    24     7     8    1
    25     7     9    1
@<TRIPOS>MOLECULE
*****
 24 25 0 0 0
SMALL
GASTEIGER

@<TRIPOS>ATOM
      1 C          64.4658   91.5453   12.7474 C.ar    1  UNL1        0.1466
      2 N          65.2920   91.4790   13.9976 N.ar    1  UNL1       -0.2017
      3 C          66.5784   92.2451   14.0880 C.ar    1  UNL1        0.2354
      4 N          67.0387   93.0775   12.9282 N.ar    1  UNL1       -0.2015
      5 C          66.2125   93.1438   11.6780 C.ar    1  UNL1        0.1499
      6 C          64.9261   92.3777   11.5876 C.ar    1  UNL1        0.1055
      7 N          64.0999   92.4441   10.3374 N.pl3   1  UNL1       -0.3526
      8 H          64.4020   92.9904    9.5761 H       1  UNL1        0.1425
      9 H          63.2556   91.9413   10.2780 H       1  UNL1        0.1425
     10 N          66.6728   93.9762   10.5181 N.pl3   1  UNL1       -0.2870
     11 C          67.5282   93.3645    9.4486 C.3     1  UNL1        0.1243
     12 C          67.9885   94.1969    8.2887 C.3     1  UNL1        0.1636
     13 O          67.5933   95.6411    8.1984 O.3     1  UNL1       -0.3501
     14 C          66.7378   96.2528    9.2680 C.3     1  UNL1        0.1636
     15 C          66.2776   95.4204   10.4278 C.3     1  UNL1        0.1243
     16 N          63.1794   90.7792   12.6571 N.pl3   1  UNL1       -0.3170
     17 H          62.3487   91.1680   13.0150 H       1  UNL1        0.1482
     18 C          63.1585   89.4208   12.0213 C.3     1  UNL1        0.0881
     19 C          62.4668   87.5471   11.3065 C.3     1  UNL1        0.0017
     20 C          61.9294   88.9475   11.3034 C.3     1  UNL1        0.0180
     21 C          61.3920   90.3480   11.3002 C.3     1  UNL1        0.0017
     22 C          60.7003   88.4743   10.5854 C.3     1  UNL1        0.0017
     23 C          67.4046   92.1787   15.3383 C.1     1  UNL1        0.1400
     24 N          68.2308   92.1124   16.5884 N.1     1  UNL1       -0.1876
@<TRIPOS>BOND
     1    19    20    1
     2    20    21    1
     3    20    22    1
     4    20    18    1
     5    18    16    1
     6    16     1    1
     7     1     2   ar
     8     2     3   ar
     9     3    23    1
    10    23    24    3
    11     3     4   ar
    12     4     5   ar
    13     5    10    1
    14    10    11    1
    15    11    12    1
    16    12    13    1
    17    13    14    1
    18    14    15    1
    19     5     6   ar
    20     6     7    1
    21     6     1   ar
    22    15    10    1
    23    16    17    1
    24     7     8    1
    25     7     9    1
@<TRIPOS>MOLECULE
*****
 24 25 0 0 0
SMALL
GASTEIGER

@<TRIPOS>ATOM
      1 C          62.7555   87.7951   11.9927 C.ar    1  UNL1        0.1466
      2 N          61.8974   87.8200   10.7627 N.ar    1  UNL1       -0.2017
      3 C          61.3736   86.5375   10.1875 C.ar    1  UNL1        0.2354
      4 N          61.7080   85.2301   10.8423 N.ar    1  UNL1       -0.2015
      5 C          62.5661   85.2051   12.0723 C.ar    1  UNL1        0.1499
      6 C          63.0899   86.4876   12.6475 C.ar    1  UNL1        0.1055
      7 N          63.9481   86.4626   13.8776 N.pl3   1  UNL1       -0.3526
      8 H          64.1675   85.6045   14.3073 H       1  UNL1        0.1425
      9 H          64.2918   87.3044   14.2551 H       1  UNL1        0.1425
     10 N          62.9006   83.8977   12.7271 N.pl3   1  UNL1       -0.2870
     11 C          63.9509   83.0077   12.1317 C.3     1  UNL1        0.1243
     12 C          64.2854   81.7002   12.7865 C.3     1  UNL1        0.1636
     13 O          63.5694   81.2828   14.0368 O.3     1  UNL1       -0.3501
     14 C          62.5189   82.1729   14.6322 C.3     1  UNL1        0.1636
     15 C          62.1846   83.4803   13.9773 C.3     1  UNL1        0.1243
     16 N          63.2792   89.0776   12.5680 N.pl3   1  UNL1       -0.3170
     17 H          63.9198   89.0565   13.3153 H       1  UNL1        0.1482
     18 C          62.8270   90.3921   12.0046 C.3     1  UNL1        0.0881
     19 C          63.1645   91.2285   10.0846 C.3     1  UNL1        0.0017
     20 C          63.8302   91.3441   11.4239 C.3     1  UNL1        0.0180
     21 C          64.4958   91.4598   12.7631 C.3     1  UNL1        0.0017
     22 C          64.8333   92.2962   10.8431 C.3     1  UNL1        0.0017
     23 C          60.5154   86.5625    8.9574 C.1     1  UNL1        0.1400
     24 N          59.6574   86.5875    7.7274 N.1     1  UNL1       -0.1876
@<TRIPOS>BOND
     1    19    20    1
     2    20    21    1
     3    20    22    1
     4    20    18    1
     5    18    16    1
     6    16     1    1
     7     1     2   ar
     8     2     3   ar
     9     3    23    1
    10    23    24    3
    11     3     4   ar
    12     4     5   ar
    13     5    10    1
    14    10    11    1
    15    11    12    1
    16    12    13    1
    17    13    14    1
    18    14    15    1
    19     5     6   ar
    20     6     7    1
    21     6     1   ar
    22    15    10    1
    23    16    17    1
    24     7     8    1
    25     7     9    1
@<TRIPOS>MOLECULE
*****
 24 25 0 0 0
SMALL
GASTEIGER

@<TRIPOS>ATOM
      1 C          63.8283   88.4108   13.4311 C.ar    1  UNL1        0.1466
      2 N          63.0240   88.8924   12.2602 N.ar    1  UNL1       -0.2017
      3 C          62.3005   87.9069   11.3910 C.ar    1  UNL1        0.2354
      4 N          62.3813   86.4399   11.6928 N.ar    1  UNL1       -0.2015
      5 C          63.1855   85.9583   12.8638 C.ar    1  UNL1        0.1499
      6 C          63.9090   86.9437   13.7329 C.ar    1  UNL1        0.1055
      7 N          64.7133   86.4620   14.9039 N.pl3   1  UNL1       -0.3526
      8 H          64.7663   85.4991   15.1020 H       1  UNL1        0.1425
      9 H          65.1882   87.1088   15.4744 H       1  UNL1        0.1425
     10 N          63.2663   84.4911   13.1656 N.pl3   1  UNL1       -0.2870
     11 C          64.2122   83.6180   12.3956 C.3     1  UNL1        0.1243
     12 C          64.2930   82.1508   12.6975 C.3     1  UNL1        0.1636
     13 O          63.4279   81.5569   13.7694 O.3     1  UNL1       -0.3501
     14 C          62.4820   82.4302   14.5394 C.3     1  UNL1        0.1636
     15 C          62.4012   83.8972   14.2375 C.3     1  UNL1        0.1243
     16 N          64.5518   89.3963   14.3003 N.pl3   1  UNL1       -0.3170
     17 H          65.1139   89.0777   15.0431 H       1  UNL1        0.1482
     18 C          64.4188   90.8671   14.0377 C.3     1  UNL1        0.0881
     19 C          66.3594   91.3356   14.7548 C.3     1  UNL1        0.0017
     20 C          65.5874   91.6427   13.5060 C.3     1  UNL1        0.0180
     21 C          64.8154   91.9498   12.2571 C.3     1  UNL1        0.0017
     22 C          66.7561   92.4183   12.9743 C.3     1  UNL1        0.0017
     23 C          61.4962   88.3886   10.2200 C.1     1  UNL1        0.1400
     24 N          60.6920   88.8702    9.0490 N.1     1  UNL1       -0.1876
@<TRIPOS>BOND
     1    19    20    1
     2    20    21    1
     3    20    22    1
     4    20    18    1
     5    18    16    1
     6    16     1    1
     7     1     2   ar
     8     2     3   ar
     9     3    23    1
    10    23    24    3
    11     3     4   ar
    12     4     5   ar
    13     5    10    1
    14    10    11    1
    15    11    12    1
    16    12    13    1
    17    13    14    1
    18    14    15    1
    19     5     6   ar
    20     6     7    1
    21     6     1   ar
    22    15    10    1
    23    16    17    1
    24     7     8    1
    25     7     9    1
@<TRIPOS>MOLECULE
*****
 24 25 0 0 0
SMALL
GASTEIGER

@<TRIPOS>ATOM
      1 C          63.3904   88.9647   12.6474 C.ar    1  UNL1        0.1466
      2 N          63.7992   87.8761   13.5949 N.ar    1  UNL1       -0.2017
      3 C          63.4257   86.4521   13.3072 C.ar    1  UNL1        0.2354
      4 N          62.6434   86.1167   12.0722 N.ar    1  UNL1       -0.2015
      5 C          62.2346   87.2054   11.1247 C.ar    1  UNL1        0.1499
      6 C          62.6081   88.6294   11.4124 C.ar    1  UNL1        0.1055
      7 N          62.1993   89.7180   10.4648 N.pl3   1  UNL1       -0.3526
      8 H          61.6858   89.4979    9.6542 H       1  UNL1        0.1425
      9 H          62.4444   90.6527   10.6536 H       1  UNL1        0.1425
     10 N          61.4522   86.8701    9.8896 N.pl3   1  UNL1       -0.2870
     11 C          62.0621   86.0040    8.8275 C.3     1  UNL1        0.1243
     12 C          61.2798   85.6687    7.5923 C.3     1  UNL1        0.1636
     13 O          59.8875   86.1995    7.4193 O.3     1  UNL1       -0.3501
     14 C          59.2776   87.0655    8.4814 C.3     1  UNL1        0.1636
     15 C          60.0600   87.4008    9.7165 C.3     1  UNL1        0.1243
     16 N          63.7639   90.3887   12.9351 N.pl3   1  UNL1       -0.3170
     17 H          63.2538   91.1239   12.5247 H       1  UNL1        0.1482
     18 C          64.9147   90.6925   13.8479 C.3     1  UNL1        0.0881
     19 C          65.1189   92.1496   12.3198 C.3     1  UNL1        0.0017
     20 C          65.6613   91.9860   13.7087 C.3     1  UNL1        0.0180
     21 C          66.2037   91.8225   15.0976 C.3     1  UNL1        0.0017
     22 C          66.4078   93.2796   13.5695 C.3     1  UNL1        0.0017
     23 C          63.8345   85.3634   14.2548 C.1     1  UNL1        0.1400
     24 N          64.2433   84.2748   15.2022 N.1     1  UNL1       -0.1876
@<TRIPOS>BOND
     1    19    20    1
     2    20    21    1
     3    20    22    1
     4    20    18    1
     5    18    16    1
     6    16     1    1
     7     1     2   ar
     8     2     3   ar
     9     3    23    1
    10    23    24    3
    11     3     4   ar
    12     4     5   ar
    13     5    10    1
    14    10    11    1
    15    11    12    1
    16    12    13    1
    17    13    14    1
    18    14    15    1
    19     5     6   ar
    20     6     7    1
    21     6     1   ar
    22    15    10    1
    23    16    17    1
    24     7     8    1
    25     7     9    1
@<TRIPOS>MOLECULE
*****
 24 25 0 0 0
SMALL
GASTEIGER

@<TRIPOS>ATOM
      1 C          62.4547   87.4373   11.0155 C.ar    1  UNL1        0.1466
      2 N          62.9765   88.5335   11.8964 N.ar    1  UNL1       -0.2017
      3 C          63.5851   88.2012   13.2265 C.ar    1  UNL1        0.2354
      4 N          63.6718   86.7727   13.6757 N.ar    1  UNL1       -0.2015
      5 C          63.1500   85.6765   12.7948 C.ar    1  UNL1        0.1499
      6 C          62.5415   86.0088   11.4647 C.ar    1  UNL1        0.1055
      7 N          62.0197   84.9125   10.5837 N.pl3   1  UNL1       -0.3526
      8 H          62.0766   83.9749   10.8786 H       1  UNL1        0.1425
      9 H          61.6203   85.1306    9.7107 H       1  UNL1        0.1425
     10 N          63.2368   84.2479   13.2440 N.pl3   1  UNL1       -0.2870
     11 C          62.3234   83.7438   14.3218 C.3     1  UNL1        0.1243
     12 C          62.4101   82.3152   14.7709 C.3     1  UNL1        0.1636
     13 O          63.4103   81.3908   14.1423 O.3     1  UNL1       -0.3501
     14 C          64.3237   81.8950   13.0645 C.3     1  UNL1        0.1636
     15 C          64.2369   83.3235   12.6154 C.3     1  UNL1        0.1243
     16 N          61.8462   87.7696    9.6853 N.pl3   1  UNL1       -0.3170
     17 H          62.4131   88.1100    8.9559 H       1  UNL1        0.1482
     18 C          60.3740   87.5832    9.4665 C.3     1  UNL1        0.0881
     19 C          60.2232   89.5360    8.6517 C.3     1  UNL1        0.0017
     20 C          59.7136   88.1808    8.2596 C.3     1  UNL1        0.0180
     21 C          59.2040   86.8256    7.8674 C.3     1  UNL1        0.0017
     22 C          59.0532   88.7784    7.0526 C.3     1  UNL1        0.0017
     23 C          64.1069   89.2974   14.1075 C.1     1  UNL1        0.1400
     24 N          64.6287   90.3937   14.9883 N.1     1  UNL1       -0.1876
@<TRIPOS>BOND
     1    19    20    1
     2    20    21    1
     3    20    22    1
     4    20    18    1
     5    18    16    1
     6    16     1    1
     7     1     2   ar
     8     2     3   ar
     9     3    23    1
    10    23    24    3
    11     3     4   ar
    12     4     5   ar
    13     5    10    1
    14    10    11    1
    15    11    12    1
    16    12    13    1
    17    13    14    1
    18    14    15    1
    19     5     6   ar
    20     6     7    1
    21     6     1   ar
    22    15    10    1
    23    16    17    1
    24     7     8    1
    25     7     9    1
