@<TRIPOS>MOLECULE
*****
 55 59 0 0 0
SMALL
GASTEIGER

@<TRIPOS>ATOM
      1 C          63.2649   90.4505   10.8415 C.3     1  UNL1        0.0760
      2 C          61.4385   88.6758   10.3274 C.2     1  UNL1        0.2384
      3 O          61.1176   88.5825   11.7896 O.2     1  UNL1       -0.2734
      4 N          62.5122   89.6098    9.8533 N.am    1  UNL1       -0.3044
      5 H          62.7228   89.6710    8.8936 H       1  UNL1        0.1494
      6 C          60.6857   87.8351    9.3391 C.3     1  UNL1        0.1293
      7 C          60.1898   89.1972    8.9536 C.3     1  UNL1        0.0440
      8 C          59.2040   89.3470    7.8328 C.3     1  UNL1        0.0707
      9 N          58.7143   88.1347    7.0977 N.3     1  UNL1       -0.2973
     10 C          59.2103   86.7725    7.4833 C.3     1  UNL1        0.0707
     11 C          60.1960   86.6228    8.6041 C.3     1  UNL1        0.0440
     12 H          58.9551   88.2686    6.1157 H       1  UNL1        0.1232
     13 N          63.1390   84.7968   10.0465 N.am    1  UNL1       -0.2567
     14 C          64.0775   83.8988    9.2962 C.3     1  UNL1        0.1168
     15 C          62.3816   85.8670    9.3177 C.2     1  UNL1        0.3046
     16 O          62.5626   86.0391    7.8387 O.2     1  UNL1       -0.2526
     17 N          61.4431   86.7650   10.0680 N.am    1  UNL1       -0.2840
     18 H          61.3243   86.6520   11.0387 H       1  UNL1        0.1513
     19 C          62.9579   84.6247   11.5255 C.3     1  UNL1        0.1413
     20 C          62.3071   81.1743   13.1798 C.ar    1  UNL1        0.0875
     21 N          61.8163   82.4995   12.6768 N.ar    1  UNL1       -0.2453
     22 C          62.9930   83.2527   12.1308 C.ar    1  UNL1        0.0858
     23 C          64.2110   82.3930   12.2963 C.ar    1  UNL1        0.0530
     24 S          63.7871   81.1084   12.9447 S.2     1  UNL1       -0.0705
     25 C          62.0389   78.7357   14.0347 C.3     1  UNL1        0.0069
     26 C          61.4656   80.1030   13.8076 C.3     1  UNL1        0.0465
     27 C          60.0507   80.3992   14.2084 C.3     1  UNL1        0.0069
     28 C          63.7811   89.8366   12.1090 C.3     1  UNL1        0.0216
     29 C          63.0826   90.1022   13.4096 C.3     1  UNL1        0.0217
     30 C          63.8708   90.5396   14.6086 C.3     1  UNL1        0.0792
     31 N          64.0901   89.5903   15.7491 N.am    1  UNL1       -0.2720
     32 C          62.9159   89.0400   16.5032 C.2     1  UNL1        0.4019
     33 O          61.5226   89.4389   16.1167 O.2     1  UNL1       -0.2264
     34 H          65.0046   89.3284   16.0027 H       1  UNL1        0.1527
     35 O          63.1352   88.0906   17.6436 O.3     1  UNL1       -0.4291
     36 C          62.5752   86.7006   17.5807 C.3     1  UNL1        0.2447
     37 C          63.1576   85.6998   16.6271 C.ar    1  UNL1        0.0714
     38 C          62.6897   84.2875   16.4365 C.ar    1  UNL1        0.1053
     39 N          63.5531   83.6505   15.3883 N.ar    1  UNL1       -0.2350
     40 C          64.5546   84.6692   14.9309 C.ar    1  UNL1        0.1343
     41 S          64.3102   85.9357   15.6965 S.2     1  UNL1       -0.0652
     42 C          64.4397   91.9263   14.6670 C.3     1  UNL1        0.0460
     43 C          65.9209   92.1245   14.7968 C.ar    1  UNL1       -0.0205
     44 C          66.4869   92.7634   16.0302 C.ar    1  UNL1       -0.0042
     45 C          67.9681   92.9616   16.1598 C.ar    1  UNL1       -0.0003
     46 C          68.8832   92.5208   15.0561 C.ar    1  UNL1       -0.0000
     47 C          68.3172   91.8819   13.8227 C.ar    1  UNL1       -0.0003
     48 C          66.8360   91.6837   13.6930 C.ar    1  UNL1       -0.0042
     49 C          63.5016   91.9052   10.5622 C.3     1  UNL1        0.0459
     50 C          64.8983   92.4520   10.5655 C.ar    1  UNL1       -0.0205
     51 C          66.0345   91.6102   10.0650 C.ar    1  UNL1       -0.0042
     52 C          67.4313   92.1571   10.0684 C.ar    1  UNL1       -0.0003
     53 C          67.6919   93.5456   10.5723 C.ar    1  UNL1       -0.0000
     54 C          66.5557   94.3874   11.0729 C.ar    1  UNL1       -0.0003
     55 C          65.1589   93.8406   11.0695 C.ar    1  UNL1       -0.0042
@<TRIPOS>BOND
     1    25    26    1
     2    26    27    1
     3    26    20    1
     4    20    21   ar
     5    21    22   ar
     6    22    19    1
     7    19    13    1
     8    13    14    1
     9    13    15   am
    10    15    16    2
    11    15    17   am
    12    17     6    1
    13     6     2    1
    14     2     3    2
    15     2     4   am
    16     4     1    1
    17     1    28    1
    18    28    29    1
    19    30    29    1
    20    30    42    1
    21    42    43    1
    22    43    44   ar
    23    44    45   ar
    24    45    46   ar
    25    46    47   ar
    26    47    48   ar
    27    30    31    1
    28    31    32   am
    29    32    33    2
    30    32    35    1
    31    35    36    1
    32    36    37    1
    33    37    38   ar
    34    38    39   ar
    35    39    40   ar
    36    40    41   ar
    37     1    49    1
    38    49    50    1
    39    50    51   ar
    40    51    52   ar
    41    52    53   ar
    42    53    54   ar
    43    54    55   ar
    44     6     7    1
    45     7     8    1
    46     8     9    1
    47     9    10    1
    48    10    11    1
    49    22    23   ar
    50    23    24   ar
    51    24    20   ar
    52    11     6    1
    53    48    43   ar
    54    41    37   ar
    55    55    50   ar
    56    17    18    1
    57     4     5    1
    58    31    34    1
    59     9    12    1
@<TRIPOS>MOLECULE
*****
 55 59 0 0 0
SMALL
GASTEIGER

@<TRIPOS>ATOM
      1 C          62.4494   87.2189   11.6797 C.3     1  UNL1        0.0760
      2 C          63.2824   89.2828   13.0199 C.2     1  UNL1        0.2384
      3 O          61.9516   89.9467   12.8246 O.2     1  UNL1       -0.2734
      4 N          63.5313   87.9189   12.4475 N.am    1  UNL1       -0.3044
      5 H          64.4048   87.4831   12.5757 H       1  UNL1        0.1494
      6 C          64.3643   89.9828   13.7877 C.3     1  UNL1        0.1293
      7 C          64.0459   91.0355   12.7677 C.3     1  UNL1        0.0440
      8 C          64.7895   92.3382   12.7772 C.3     1  UNL1        0.0707
      9 N          65.8514   92.5882   13.8066 N.3     1  UNL1       -0.2973
     10 C          66.1698   91.5355   14.8266 C.3     1  UNL1        0.0707
     11 C          65.4262   90.2328   14.8171 C.3     1  UNL1        0.0440
     12 H          65.5712   93.4225   14.3221 H       1  UNL1        0.1232
     13 N          63.4646   87.2989   16.5694 N.am    1  UNL1       -0.2567
     14 C          62.6797   87.2067   17.8443 C.3     1  UNL1        0.1168
     15 C          63.5220   88.5948   15.8160 C.2     1  UNL1        0.3046
     16 O          62.7945   89.7983   16.3376 O.2     1  UNL1       -0.2526
     17 N          64.3069   88.6870   14.5411 N.am    1  UNL1       -0.2840
     18 H          64.7844   87.8970   14.1987 H       1  UNL1        0.1513
     19 C          64.1921   86.0954   16.0478 C.3     1  UNL1        0.1413
     20 C          62.8744   82.7284   14.6361 C.ar    1  UNL1        0.0875
     21 N          64.0058   83.6471   14.9911 N.ar    1  UNL1       -0.2453
     22 C          63.4201   84.9051   15.5607 C.ar    1  UNL1        0.0858
     23 C          61.9268   84.7638   15.5578 C.ar    1  UNL1        0.0530
     24 S          61.5895   83.4185   14.9863 S.2     1  UNL1       -0.0705
     25 C          64.3592   80.7317   13.8888 C.3     1  UNL1        0.0069
     26 C          63.0051   81.3598   14.0363 C.3     1  UNL1        0.0465
     27 C          61.7815   80.6193   13.5839 C.3     1  UNL1        0.0069
     28 C          61.8160   87.8886   10.4964 C.3     1  UNL1        0.0216
     29 C          60.3376   87.7722   10.2713 C.3     1  UNL1        0.0217
     30 C          59.7690   87.9823    8.8991 C.3     1  UNL1        0.0792
     31 N          59.4763   89.3709    8.4132 N.am    1  UNL1       -0.2720
     32 C          59.2878   89.6284    6.9475 C.2     1  UNL1        0.4019
     33 O          59.3922   88.4974    5.9678 O.2     1  UNL1       -0.2264
     34 H          59.4078   90.1132    9.0562 H       1  UNL1        0.1527
     35 O          58.9951   91.0170    6.4616 O.3     1  UNL1       -0.4291
     36 C          58.8343   91.2796    4.9935 C.3     1  UNL1        0.2447
     37 C          60.0048   91.7525    4.1835 C.ar    1  UNL1        0.0714
     38 C          61.4203   91.2745    4.3173 C.ar    1  UNL1        0.1053
     39 N          62.2558   92.0130    3.3140 N.ar    1  UNL1       -0.2350
     40 C          61.3566   92.9474    2.5600 C.ar    1  UNL1        0.1343
     41 S          59.9655   92.7863    3.0975 S.2     1  UNL1       -0.0652
     42 C          59.4932   86.8039    8.0130 C.3     1  UNL1        0.0460
     43 C          60.6232   85.9326    7.5503 C.ar    1  UNL1       -0.0205
     44 C          60.4342   85.0205    6.3747 C.ar    1  UNL1       -0.0042
     45 C          61.5642   84.1493    5.9121 C.ar    1  UNL1       -0.0003
     46 C          62.8832   84.1903    6.6251 C.ar    1  UNL1       -0.0000
     47 C          63.0723   85.1024    7.8007 C.ar    1  UNL1       -0.0003
     48 C          61.9423   85.9736    8.2633 C.ar    1  UNL1       -0.0042
     49 C          62.0010   85.8491   12.0952 C.3     1  UNL1        0.0459
     50 C          62.7405   84.6381   11.6085 C.ar    1  UNL1       -0.0205
     51 C          61.9972   83.5315   10.9209 C.ar    1  UNL1       -0.0042
     52 C          62.7367   82.3206   10.4343 C.ar    1  UNL1       -0.0003
     53 C          64.2194   82.2162   10.6353 C.ar    1  UNL1       -0.0000
     54 C          64.9628   83.3229   11.3229 C.ar    1  UNL1       -0.0003
     55 C          64.2234   84.5338   11.8095 C.ar    1  UNL1       -0.0042
@<TRIPOS>BOND
     1    25    26    1
     2    26    27    1
     3    26    20    1
     4    20    21   ar
     5    21    22   ar
     6    22    19    1
     7    19    13    1
     8    13    14    1
     9    13    15   am
    10    15    16    2
    11    15    17   am
    12    17     6    1
    13     6     2    1
    14     2     3    2
    15     2     4   am
    16     4     1    1
    17     1    28    1
    18    28    29    1
    19    30    29    1
    20    30    42    1
    21    42    43    1
    22    43    44   ar
    23    44    45   ar
    24    45    46   ar
    25    46    47   ar
    26    47    48   ar
    27    30    31    1
    28    31    32   am
    29    32    33    2
    30    32    35    1
    31    35    36    1
    32    36    37    1
    33    37    38   ar
    34    38    39   ar
    35    39    40   ar
    36    40    41   ar
    37     1    49    1
    38    49    50    1
    39    50    51   ar
    40    51    52   ar
    41    52    53   ar
    42    53    54   ar
    43    54    55   ar
    44     6     7    1
    45     7     8    1
    46     8     9    1
    47     9    10    1
    48    10    11    1
    49    22    23   ar
    50    23    24   ar
    51    24    20   ar
    52    11     6    1
    53    48    43   ar
    54    41    37   ar
    55    55    50   ar
    56    17    18    1
    57     4     5    1
    58    31    34    1
    59     9    12    1
@<TRIPOS>MOLECULE
*****
 55 59 0 0 0
SMALL
GASTEIGER

@<TRIPOS>ATOM
      1 C          63.8770   87.1494   13.2298 C.3     1  UNL1        0.0760
      2 C          62.8021   84.7844   13.1967 C.2     1  UNL1        0.2384
      3 O          61.8145   85.2187   14.2388 O.2     1  UNL1       -0.2734
      4 N          63.8333   85.7498   12.6922 N.am    1  UNL1       -0.3044
      5 H          64.4815   85.4647   12.0082 H       1  UNL1        0.1494
      6 C          62.7583   83.3848   12.6591 C.3     1  UNL1        0.1293
      7 C          63.3280   83.1227   14.0217 C.3     1  UNL1        0.0440
      8 C          63.6613   81.7208   14.4384 C.3     1  UNL1        0.0707
      9 N          63.4251   80.5810   13.4924 N.3     1  UNL1       -0.2973
     10 C          62.8554   80.8430   12.1297 C.3     1  UNL1        0.0707
     11 C          62.5221   82.2450   11.7131 C.3     1  UNL1        0.0440
     12 H          62.7862   79.9379   13.9600 H       1  UNL1        0.1232
     13 N          62.5084   85.1277    9.1025 N.am    1  UNL1       -0.2567
     14 C          63.3674   85.3744    7.8977 C.3     1  UNL1        0.1168
     15 C          63.0629   84.3796   10.2784 C.2     1  UNL1        0.3046
     16 O          64.4762   83.8781   10.2496 O.2     1  UNL1       -0.2526
     17 N          62.2039   84.1329   11.4832 N.am    1  UNL1       -0.2840
     18 H          61.2762   84.4621   11.5021 H       1  UNL1        0.1513
     19 C          61.0951   85.6293    9.1313 C.3     1  UNL1        0.1413
     20 C          59.9349   88.9138   10.8435 C.ar    1  UNL1        0.0875
     21 N          59.9488   87.4164   10.7553 N.ar    1  UNL1       -0.2453
     22 C          60.8050   87.0289    9.5862 C.ar    1  UNL1        0.0858
     23 C          61.3203   88.2867    8.9519 C.ar    1  UNL1        0.0530
     24 S          60.7825   89.4517    9.7290 S.2     1  UNL1       -0.0705
     25 C          58.6505   89.0715   13.0963 C.3     1  UNL1        0.0069
     26 C          59.2020   89.7299   11.8666 C.3     1  UNL1        0.0465
     27 C          59.0206   91.2045   11.6599 C.3     1  UNL1        0.0069
     28 C          63.1990   88.2606   12.4845 C.3     1  UNL1        0.0216
     29 C          62.9420   89.5725   13.1649 C.3     1  UNL1        0.0217
     30 C          64.0740   90.5267   13.4061 C.3     1  UNL1        0.0792
     31 N          64.8287   91.1038   12.2453 N.am    1  UNL1       -0.2720
     32 C          64.0835   91.6936   11.0848 C.2     1  UNL1        0.4019
     33 O          62.5835   91.7064   11.0851 O.2     1  UNL1       -0.2264
     34 H          65.8132   91.0954   12.2451 H       1  UNL1        0.1527
     35 O          64.8382   92.2706    9.9240 O.3     1  UNL1       -0.4291
     36 C          66.2455   92.7549   10.1106 C.3     1  UNL1        0.2447
     37 C          66.5584   94.2166    9.9858 C.ar    1  UNL1        0.0714
     38 C          67.3497   94.8580    8.8847 C.ar    1  UNL1        0.1053
     39 N          67.4153   96.3313    9.1586 N.ar    1  UNL1       -0.2350
     40 C          66.6647   96.6005   10.4291 C.ar    1  UNL1        0.1343
     41 S          66.1351   95.2935   10.9403 S.2     1  UNL1       -0.0652
     42 C          64.4513   90.9039   14.8080 C.3     1  UNL1        0.0460
     43 C          65.7872   91.5281   15.0831 C.ar    1  UNL1       -0.0205
     44 C          65.9527   92.4655   16.2423 C.ar    1  UNL1       -0.0042
     45 C          67.2886   93.0897   16.5173 C.ar    1  UNL1       -0.0003
     46 C          68.4590   92.7765   15.6331 C.ar    1  UNL1       -0.0000
     47 C          68.2936   91.8392   14.4738 C.ar    1  UNL1       -0.0003
     48 C          66.9577   91.2150   14.1988 C.ar    1  UNL1       -0.0042
     49 C          64.5988   87.4379   14.5128 C.3     1  UNL1        0.0459
     50 C          63.9199   87.1905   15.8272 C.ar    1  UNL1       -0.0205
     51 C          63.8235   85.7958   16.3709 C.ar    1  UNL1       -0.0042
     52 C          63.1446   85.5484   17.6853 C.ar    1  UNL1       -0.0003
     53 C          62.5620   86.6957   18.4562 C.ar    1  UNL1       -0.0000
     54 C          62.6583   88.0905   17.9125 C.ar    1  UNL1       -0.0003
     55 C          63.3372   88.3379   16.5981 C.ar    1  UNL1       -0.0042
@<TRIPOS>BOND
     1    25    26    1
     2    26    27    1
     3    26    20    1
     4    20    21   ar
     5    21    22   ar
     6    22    19    1
     7    19    13    1
     8    13    14    1
     9    13    15   am
    10    15    16    2
    11    15    17   am
    12    17     6    1
    13     6     2    1
    14     2     3    2
    15     2     4   am
    16     4     1    1
    17     1    28    1
    18    28    29    1
    19    30    29    1
    20    30    42    1
    21    42    43    1
    22    43    44   ar
    23    44    45   ar
    24    45    46   ar
    25    46    47   ar
    26    47    48   ar
    27    30    31    1
    28    31    32   am
    29    32    33    2
    30    32    35    1
    31    35    36    1
    32    36    37    1
    33    37    38   ar
    34    38    39   ar
    35    39    40   ar
    36    40    41   ar
    37     1    49    1
    38    49    50    1
    39    50    51   ar
    40    51    52   ar
    41    52    53   ar
    42    53    54   ar
    43    54    55   ar
    44     6     7    1
    45     7     8    1
    46     8     9    1
    47     9    10    1
    48    10    11    1
    49    22    23   ar
    50    23    24   ar
    51    24    20   ar
    52    11     6    1
    53    48    43   ar
    54    41    37   ar
    55    55    50   ar
    56    17    18    1
    57     4     5    1
    58    31    34    1
    59     9    12    1
@<TRIPOS>MOLECULE
*****
 55 59 0 0 0
SMALL
GASTEIGER

@<TRIPOS>ATOM
      1 C          63.7437   87.7914   13.0685 C.3     1  UNL1        0.0760
      2 C          62.6016   85.5830   12.3144 C.2     1  UNL1        0.2384
      3 O          61.2879   86.2989   12.2074 O.2     1  UNL1       -0.2734
      4 N          63.8295   86.3292   12.7449 N.am    1  UNL1       -0.3044
      5 H          64.6918   85.8593   12.8152 H       1  UNL1        0.1494
      6 C          62.6874   84.1208   11.9909 C.3     1  UNL1        0.1293
      7 C          63.3363   84.1269   13.3433 C.3     1  UNL1        0.0440
      8 C          63.8353   82.8450   13.9415 C.3     1  UNL1        0.0707
      9 N          63.6854   81.5571   13.1874 N.3     1  UNL1       -0.2973
     10 C          63.0366   81.5510   11.8350 C.3     1  UNL1        0.0707
     11 C          62.5376   82.8329   11.2368 C.3     1  UNL1        0.0440
     12 H          63.1388   80.9313   13.7790 H       1  UNL1        0.1232
     13 N          62.0552   85.1023    8.1979 N.am    1  UNL1       -0.2567
     14 C          62.7803   85.0802    6.8849 C.3     1  UNL1        0.1168
     15 C          62.7339   84.6005    9.4379 C.2     1  UNL1        0.3046
     16 O          64.1375   84.0767    9.3650 O.2     1  UNL1       -0.2526
     17 N          62.0088   84.6226   10.7509 N.am    1  UNL1       -0.2840
     18 H          61.0875   84.9663   10.7987 H       1  UNL1        0.1513
     19 C          60.6516   85.6261    8.2708 C.3     1  UNL1        0.1413
     20 C          59.8189   88.8341   10.2909 C.ar    1  UNL1        0.0875
     21 N          59.9584   87.3435   10.1983 N.ar    1  UNL1       -0.2453
     22 C          60.3920   87.0042    8.8030 C.ar    1  UNL1        0.0858
     23 C          60.5206   88.2852    8.0332 C.ar    1  UNL1        0.0530
     24 S          60.1664   89.4162    8.9528 S.2     1  UNL1       -0.0705
     25 C          59.4311   91.1066   11.4889 C.3     1  UNL1        0.0069
     26 C          59.4047   89.6070   11.5079 C.3     1  UNL1        0.0465
     27 C          58.9641   88.8801   12.7439 C.3     1  UNL1        0.0069
     28 C          63.1748   88.7495   12.0644 C.3     1  UNL1        0.0216
     29 C          62.9625   90.1871   12.4362 C.3     1  UNL1        0.0217
     30 C          64.0461   91.1941   12.1871 C.3     1  UNL1        0.0792
     31 N          64.9983   91.5587   13.2872 N.am    1  UNL1       -0.2720
     32 C          64.5335   91.5550   14.7134 C.2     1  UNL1        0.4019
     33 O          63.1165   91.1867   15.0394 O.2     1  UNL1       -0.2264
     34 H          65.9284   91.8004   13.0733 H       1  UNL1        0.1527
     35 O          65.4857   91.9196   15.8136 O.3     1  UNL1       -0.4291
     36 C          66.4962   93.0075   15.6009 C.3     1  UNL1        0.2447
     37 C          67.8114   92.6932   14.9516 C.ar    1  UNL1        0.0714
     38 C          68.0018   91.9803   13.6457 C.ar    1  UNL1        0.1053
     39 N          69.4751   91.8830   13.3811 N.ar    1  UNL1       -0.2350
     40 C          70.1952   92.5358   14.5236 C.ar    1  UNL1        0.1343
     41 S          69.1670   93.0365   15.4942 S.2     1  UNL1       -0.0652
     42 C          64.1774   91.8364   10.8380 C.3     1  UNL1        0.0460
     43 C          65.3843   92.6674   10.5172 C.ar    1  UNL1       -0.0205
     44 C          65.3060   94.1635   10.5913 C.ar    1  UNL1       -0.0042
     45 C          66.5129   94.9944   10.2704 C.ar    1  UNL1       -0.0003
     46 C          67.7980   94.3293    9.8756 C.ar    1  UNL1       -0.0000
     47 C          67.8763   92.8332    9.8015 C.ar    1  UNL1       -0.0003
     48 C          66.6695   92.0022   10.1223 C.ar    1  UNL1       -0.0042
     49 C          64.2269   88.2954   14.3961 C.3     1  UNL1        0.0459
     50 C          63.7366   87.6596   15.6632 C.ar    1  UNL1       -0.0205
     51 C          63.1485   88.5098   16.7501 C.ar    1  UNL1       -0.0042
     52 C          62.6583   87.8741   18.0172 C.ar    1  UNL1       -0.0003
     53 C          62.7561   86.3882   18.1974 C.ar    1  UNL1       -0.0000
     54 C          63.3442   85.5380   17.1105 C.ar    1  UNL1       -0.0003
     55 C          63.8345   86.1737   15.8434 C.ar    1  UNL1       -0.0042
@<TRIPOS>BOND
     1    25    26    1
     2    26    27    1
     3    26    20    1
     4    20    21   ar
     5    21    22   ar
     6    22    19    1
     7    19    13    1
     8    13    14    1
     9    13    15   am
    10    15    16    2
    11    15    17   am
    12    17     6    1
    13     6     2    1
    14     2     3    2
    15     2     4   am
    16     4     1    1
    17     1    28    1
    18    28    29    1
    19    30    29    1
    20    30    42    1
    21    42    43    1
    22    43    44   ar
    23    44    45   ar
    24    45    46   ar
    25    46    47   ar
    26    47    48   ar
    27    30    31    1
    28    31    32   am
    29    32    33    2
    30    32    35    1
    31    35    36    1
    32    36    37    1
    33    37    38   ar
    34    38    39   ar
    35    39    40   ar
    36    40    41   ar
    37     1    49    1
    38    49    50    1
    39    50    51   ar
    40    51    52   ar
    41    52    53   ar
    42    53    54   ar
    43    54    55   ar
    44     6     7    1
    45     7     8    1
    46     8     9    1
    47     9    10    1
    48    10    11    1
    49    22    23   ar
    50    23    24   ar
    51    24    20   ar
    52    11     6    1
    53    48    43   ar
    54    41    37   ar
    55    55    50   ar
    56    17    18    1
    57     4     5    1
    58    31    34    1
    59     9    12    1
@<TRIPOS>MOLECULE
*****
 55 59 0 0 0
SMALL
GASTEIGER

@<TRIPOS>ATOM
      1 C          61.8973   86.8568   11.7648 C.3     1  UNL1        0.0760
      2 C          62.2992   89.3812   12.2296 C.2     1  UNL1        0.2384
      3 O          60.9369   89.4841   12.8487 O.2     1  UNL1       -0.2734
      4 N          62.7795   88.0676   11.6877 N.am    1  UNL1       -0.3044
      5 H          63.6737   88.0001   11.2814 H       1  UNL1        0.1494
      6 C          63.1814   90.5919   12.1525 C.3     1  UNL1        0.1293
      7 C          62.9602   90.3373   10.6910 C.3     1  UNL1        0.0440
      8 C          63.5916   91.2358    9.6691 C.3     1  UNL1        0.0707
      9 N          64.4441   92.3889   10.1089 N.3     1  UNL1       -0.2973
     10 C          64.6653   92.6436   11.5705 C.3     1  UNL1        0.0707
     11 C          64.0339   91.7450   12.5923 C.3     1  UNL1        0.0440
     12 H          64.0195   93.2326    9.7239 H       1  UNL1        0.1232
     13 N          63.9850   90.9726   16.0202 N.am    1  UNL1       -0.2567
     14 C          64.9591   91.6850   16.9112 C.3     1  UNL1        0.1168
     15 C          64.0702   91.1385   14.5319 C.2     1  UNL1        0.3046
     16 O          65.1294   92.0166   13.9345 O.2     1  UNL1       -0.2526
     17 N          63.0962   90.4261   13.6409 N.am    1  UNL1       -0.2840
     18 H          62.4010   89.8497   14.0330 H       1  UNL1        0.1513
     19 C          62.9258   90.0944   16.6176 C.3     1  UNL1        0.1413
     20 C          63.7674   86.3460   16.0635 C.ar    1  UNL1        0.0875
     21 N          63.7961   87.7760   15.6113 N.ar    1  UNL1       -0.2453
     22 C          63.1208   88.6078   16.6611 C.ar    1  UNL1        0.0858
     23 C          62.6748   87.6919   17.7621 C.ar    1  UNL1        0.0530
     24 S          63.0744   86.2941   17.3928 S.2     1  UNL1       -0.0705
     25 C          63.7165   83.8156   15.4770 C.3     1  UNL1        0.0069
     26 C          64.3325   85.1739   15.3174 C.3     1  UNL1        0.0465
     27 C          65.5136   85.3601   14.4117 C.3     1  UNL1        0.0069
     28 C          60.6027   86.8227   11.0081 C.3     1  UNL1        0.0216
     29 C          60.1541   88.0271   10.2347 C.3     1  UNL1        0.0217
     30 C          59.9961   87.9459    8.7452 C.3     1  UNL1        0.0792
     31 N          60.1903   89.1715    7.9025 N.am    1  UNL1       -0.2720
     32 C          59.1579   89.5519    6.8828 C.2     1  UNL1        0.4019
     33 O          57.9315   88.7067    6.7059 O.2     1  UNL1       -0.2264
     34 H          60.9953   89.7262    8.0186 H       1  UNL1        0.1527
     35 O          59.3521   90.7775    6.0401 O.3     1  UNL1       -0.4291
     36 C          60.5685   90.9056    5.1717 C.3     1  UNL1        0.2447
     37 C          60.5746   91.8758    4.0278 C.ar    1  UNL1        0.0714
     38 C          59.4477   92.7856    3.6373 C.ar    1  UNL1        0.1053
     39 N          59.8853   93.5788    2.4417 N.ar    1  UNL1       -0.2350
     40 C          61.2826   93.1592    2.0932 C.ar    1  UNL1        0.1343
     41 S          61.7086   92.1067    3.0735 S.2     1  UNL1       -0.0652
     42 C          59.6438   86.6391    8.0985 C.3     1  UNL1        0.0460
     43 C          60.7160   85.8022    7.4661 C.ar    1  UNL1       -0.0205
     44 C          62.1119   85.8319    8.0144 C.ar    1  UNL1       -0.0042
     45 C          63.1840   84.9949    7.3819 C.ar    1  UNL1       -0.0003
     46 C          62.8603   84.1283    6.2012 C.ar    1  UNL1       -0.0000
     47 C          61.4644   84.0986    5.6529 C.ar    1  UNL1       -0.0003
     48 C          60.3923   84.9356    6.2853 C.ar    1  UNL1       -0.0042
     49 C          62.3099   85.6802   12.5987 C.3     1  UNL1        0.0459
     50 C          62.7739   84.4171   11.9359 C.ar    1  UNL1       -0.0205
     51 C          62.3039   83.0867   12.4449 C.ar    1  UNL1       -0.0042
     52 C          62.7678   81.8236   11.7821 C.ar    1  UNL1       -0.0003
     53 C          63.7018   81.8908   10.6103 C.ar    1  UNL1       -0.0000
     54 C          64.1719   83.2213   10.1013 C.ar    1  UNL1       -0.0003
     55 C          63.7079   84.4844   10.7641 C.ar    1  UNL1       -0.0042
@<TRIPOS>BOND
     1    25    26    1
     2    26    27    1
     3    26    20    1
     4    20    21   ar
     5    21    22   ar
     6    22    19    1
     7    19    13    1
     8    13    14    1
     9    13    15   am
    10    15    16    2
    11    15    17   am
    12    17     6    1
    13     6     2    1
    14     2     3    2
    15     2     4   am
    16     4     1    1
    17     1    28    1
    18    28    29    1
    19    30    29    1
    20    30    42    1
    21    42    43    1
    22    43    44   ar
    23    44    45   ar
    24    45    46   ar
    25    46    47   ar
    26    47    48   ar
    27    30    31    1
    28    31    32   am
    29    32    33    2
    30    32    35    1
    31    35    36    1
    32    36    37    1
    33    37    38   ar
    34    38    39   ar
    35    39    40   ar
    36    40    41   ar
    37     1    49    1
    38    49    50    1
    39    50    51   ar
    40    51    52   ar
    41    52    53   ar
    42    53    54   ar
    43    54    55   ar
    44     6     7    1
    45     7     8    1
    46     8     9    1
    47     9    10    1
    48    10    11    1
    49    22    23   ar
    50    23    24   ar
    51    24    20   ar
    52    11     6    1
    53    48    43   ar
    54    41    37   ar
    55    55    50   ar
    56    17    18    1
    57     4     5    1
    58    31    34    1
    59     9    12    1
@<TRIPOS>MOLECULE
*****
 55 59 0 0 0
SMALL
GASTEIGER

@<TRIPOS>ATOM
      1 C          62.2476   85.7662   10.5878 C.3     1  UNL1        0.0760
      2 C          61.8888   88.1885   11.4558 C.2     1  UNL1        0.2384
      3 O          63.2186   88.1374   12.1479 O.2     1  UNL1       -0.2734
      4 N          61.4033   87.0029   10.6758 N.am    1  UNL1       -0.3044
      5 H          60.5305   87.0364   10.2216 H       1  UNL1        0.1494
      6 C          61.0445   89.4252   11.5438 C.3     1  UNL1        0.1293
      7 C          59.9915   88.3760   11.7452 C.3     1  UNL1        0.0440
      8 C          58.5617   88.7788   11.9541 C.3     1  UNL1        0.0707
      9 N          58.1850   90.2306   11.9615 N.3     1  UNL1       -0.2973
     10 C          59.2379   91.2798   11.7601 C.3     1  UNL1        0.0707
     11 C          60.6677   90.8770   11.5513 C.3     1  UNL1        0.0440
     12 H          57.7520   90.4178   12.8659 H       1  UNL1        0.1232
     13 N          64.4679   91.3169   12.2157 N.am    1  UNL1       -0.2567
     14 C          65.1990   91.9693   13.3515 C.3     1  UNL1        0.1168
     15 C          63.1217   90.6973   12.4477 C.2     1  UNL1        0.3046
     16 O          62.5066   90.7301   13.8153 O.2     1  UNL1       -0.2526
     17 N          62.3907   90.0448   11.3119 N.am    1  UNL1       -0.2840
     18 H          62.7944   90.0232   10.4143 H       1  UNL1        0.1513
     19 C          65.0831   91.2840   10.8481 C.3     1  UNL1        0.1413
     20 C          66.4815   94.6847    9.6051 C.ar    1  UNL1        0.0875
     21 N          65.3432   93.8311   10.0801 N.ar    1  UNL1       -0.2453
     22 C          65.8777   92.4567   10.3548 C.ar    1  UNL1        0.0858
     23 C          67.3462   92.4609   10.0494 C.ar    1  UNL1        0.0530
     24 S          67.7195   93.8379    9.5860 S.2     1  UNL1       -0.0705
     25 C          65.0863   96.8558    9.3053 C.3     1  UNL1        0.0069
     26 C          66.3967   96.1312    9.2171 C.3     1  UNL1        0.0465
     27 C          67.6223   96.8530    8.7408 C.3     1  UNL1        0.0069
     28 C          62.2292   84.7645   11.7041 C.3     1  UNL1        0.0216
     29 C          62.6030   85.1844   13.0948 C.3     1  UNL1        0.0217
     30 C          63.8152   84.5974   13.7552 C.3     1  UNL1        0.0792
     31 N          64.1036   83.1311   13.6258 N.am    1  UNL1       -0.2720
     32 C          63.2768   82.1344   14.3829 C.2     1  UNL1        0.4019
     33 O          62.1617   82.6040   15.2693 O.2     1  UNL1       -0.2264
     34 H          64.8356   82.8228   13.0440 H       1  UNL1        0.1527
     35 O          63.5653   80.6681   14.2534 O.3     1  UNL1       -0.4291
     36 C          62.6805   79.8015   13.4072 C.3     1  UNL1        0.2447
     37 C          62.7880   79.8536   11.9120 C.ar    1  UNL1        0.0714
     38 C          63.1044   81.0695   11.0926 C.ar    1  UNL1        0.1053
     39 N          63.1099   80.6664    9.6478 N.ar    1  UNL1       -0.2350
     40 C          62.7970   79.2012    9.5742 C.ar    1  UNL1        0.1343
     41 S          62.5981   78.6989   10.9736 S.2     1  UNL1       -0.0652
     42 C          64.7388   85.4766   14.5450 C.3     1  UNL1        0.0460
     43 C          64.1816   86.5898   15.3819 C.ar    1  UNL1       -0.0205
     44 C          63.3975   86.2760   16.6215 C.ar    1  UNL1       -0.0042
     45 C          62.8403   87.3892   17.4583 C.ar    1  UNL1       -0.0003
     46 C          63.0672   88.8162   17.0554 C.ar    1  UNL1       -0.0000
     47 C          63.8513   89.1300   15.8158 C.ar    1  UNL1       -0.0003
     48 C          64.4085   88.0168   14.9790 C.ar    1  UNL1       -0.0042
     49 C          63.1103   85.5312    9.3834 C.3     1  UNL1        0.0459
     50 C          62.4815   85.1818    8.0671 C.ar    1  UNL1       -0.0205
     51 C          63.3067   84.5489    6.9862 C.ar    1  UNL1       -0.0042
     52 C          62.6779   84.1995    5.6699 C.ar    1  UNL1       -0.0003
     53 C          61.2239   84.4830    5.4346 C.ar    1  UNL1       -0.0000
     54 C          60.3986   85.1158    6.5155 C.ar    1  UNL1       -0.0003
     55 C          61.0274   85.4652    7.8318 C.ar    1  UNL1       -0.0042
@<TRIPOS>BOND
     1    25    26    1
     2    26    27    1
     3    26    20    1
     4    20    21   ar
     5    21    22   ar
     6    22    19    1
     7    19    13    1
     8    13    14    1
     9    13    15   am
    10    15    16    2
    11    15    17   am
    12    17     6    1
    13     6     2    1
    14     2     3    2
    15     2     4   am
    16     4     1    1
    17     1    28    1
    18    28    29    1
    19    30    29    1
    20    30    42    1
    21    42    43    1
    22    43    44   ar
    23    44    45   ar
    24    45    46   ar
    25    46    47   ar
    26    47    48   ar
    27    30    31    1
    28    31    32   am
    29    32    33    2
    30    32    35    1
    31    35    36    1
    32    36    37    1
    33    37    38   ar
    34    38    39   ar
    35    39    40   ar
    36    40    41   ar
    37     1    49    1
    38    49    50    1
    39    50    51   ar
    40    51    52   ar
    41    52    53   ar
    42    53    54   ar
    43    54    55   ar
    44     6     7    1
    45     7     8    1
    46     8     9    1
    47     9    10    1
    48    10    11    1
    49    22    23   ar
    50    23    24   ar
    51    24    20   ar
    52    11     6    1
    53    48    43   ar
    54    41    37   ar
    55    55    50   ar
    56    17    18    1
    57     4     5    1
    58    31    34    1
    59     9    12    1
@<TRIPOS>MOLECULE
*****
 55 59 0 0 0
SMALL
GASTEIGER

@<TRIPOS>ATOM
      1 C          62.3848   85.5947   11.1553 C.3     1  UNL1        0.0760
      2 C          62.0812   88.1013   11.7673 C.2     1  UNL1        0.2384
      3 O          63.4740   88.1342   12.3232 O.2     1  UNL1       -0.2734
      4 N          61.5366   86.8315   11.1834 N.am    1  UNL1       -0.3044
      5 H          60.6225   86.8099   10.8185 H       1  UNL1        0.1494
      6 C          61.2330   89.3381   11.7954 C.3     1  UNL1        0.1293
      7 C          60.1833   88.3091   11.4970 C.3     1  UNL1        0.0440
      8 C          58.7521   88.7251   11.3269 C.3     1  UNL1        0.0707
      9 N          58.3708   90.1701   11.4552 N.3     1  UNL1       -0.2973
     10 C          59.4206   91.1992   11.7536 C.3     1  UNL1        0.0707
     11 C          60.8517   90.7831   11.9237 C.3     1  UNL1        0.0440
     12 H          57.6811   90.2272   12.2045 H       1  UNL1        0.1232
     13 N          64.5289   91.5151   11.4110 N.am    1  UNL1       -0.2567
     14 C          65.1361   92.4931   10.4493 C.3     1  UNL1        0.1168
     15 C          63.1846   90.9156   11.1223 C.2     1  UNL1        0.3046
     16 O          62.4474   91.2942    9.8721 O.2     1  UNL1       -0.2526
     17 N          62.5774   89.9376   12.0840 N.am    1  UNL1       -0.2840
     18 H          63.0612   89.6891   12.9047 H       1  UNL1        0.1513
     19 C          65.2661   91.1365   12.6613 C.3     1  UNL1        0.1413
     20 C          67.7105   93.1851   14.8735 C.ar    1  UNL1        0.0875
     21 N          67.1371   91.8746   14.4219 N.ar    1  UNL1       -0.2453
     22 C          66.0931   92.1589   13.3830 C.ar    1  UNL1        0.0858
     23 C          66.0212   93.6450   13.1926 C.ar    1  UNL1        0.0530
     24 S          67.0208   94.2793   14.1138 S.2     1  UNL1       -0.0705
     25 C          69.3297   94.7384   16.1830 C.3     1  UNL1        0.0069
     26 C          68.7849   93.3691   15.9039 C.3     1  UNL1        0.0465
     27 C          69.3144   92.1836   16.6552 C.3     1  UNL1        0.0069
     28 C          62.5281   84.7554   12.3902 C.3     1  UNL1        0.0216
     29 C          63.7626   84.8685   13.2347 C.3     1  UNL1        0.0217
     30 C          63.9273   83.9950   14.4431 C.3     1  UNL1        0.0792
     31 N          63.7498   84.5727   15.8159 N.am    1  UNL1       -0.2720
     32 C          62.3914   85.0147   16.2737 C.2     1  UNL1        0.4019
     33 O          61.2107   84.8790   15.3587 O.2     1  UNL1       -0.2264
     34 H          64.5248   84.6618   16.4165 H       1  UNL1        0.1527
     35 O          62.2139   85.5925   17.6466 O.3     1  UNL1       -0.4291
     36 C          62.8750   86.8902   18.0054 C.3     1  UNL1        0.2447
     37 C          63.2176   87.8795   16.9312 C.ar    1  UNL1        0.0714
     38 C          63.9835   87.5872   15.6751 C.ar    1  UNL1        0.1053
     39 N          64.0938   88.8619   14.8921 N.ar    1  UNL1       -0.2350
     40 C          63.3961   89.9420   15.6643 C.ar    1  UNL1        0.1343
     41 S          62.8546   89.3349   16.9246 S.2     1  UNL1       -0.0652
     42 C          64.2695   82.5439   14.2785 C.3     1  UNL1        0.0460
     43 C          63.8396   81.8072   13.0446 C.ar    1  UNL1       -0.0205
     44 C          62.9324   80.6181   13.1588 C.ar    1  UNL1       -0.0042
     45 C          62.5026   79.8815   11.9249 C.ar    1  UNL1       -0.0003
     46 C          62.9799   80.3338   10.5768 C.ar    1  UNL1       -0.0000
     47 C          63.8872   81.5229   10.4625 C.ar    1  UNL1       -0.0003
     48 C          64.3170   82.2595   11.6964 C.ar    1  UNL1       -0.0042
     49 C          63.0897   85.1972    9.8923 C.3     1  UNL1        0.0459
     50 C          62.3338   85.1393    8.5979 C.ar    1  UNL1       -0.0205
     51 C          62.9426   84.4669    7.4033 C.ar    1  UNL1       -0.0042
     52 C          62.1867   84.4090    6.1089 C.ar    1  UNL1       -0.0003
     53 C          60.8220   85.0235    6.0093 C.ar    1  UNL1       -0.0000
     54 C          60.2132   85.6960    7.2040 C.ar    1  UNL1       -0.0003
     55 C          60.9690   85.7538    8.4983 C.ar    1  UNL1       -0.0042
@<TRIPOS>BOND
     1    25    26    1
     2    26    27    1
     3    26    20    1
     4    20    21   ar
     5    21    22   ar
     6    22    19    1
     7    19    13    1
     8    13    14    1
     9    13    15   am
    10    15    16    2
    11    15    17   am
    12    17     6    1
    13     6     2    1
    14     2     3    2
    15     2     4   am
    16     4     1    1
    17     1    28    1
    18    28    29    1
    19    30    29    1
    20    30    42    1
    21    42    43    1
    22    43    44   ar
    23    44    45   ar
    24    45    46   ar
    25    46    47   ar
    26    47    48   ar
    27    30    31    1
    28    31    32   am
    29    32    33    2
    30    32    35    1
    31    35    36    1
    32    36    37    1
    33    37    38   ar
    34    38    39   ar
    35    39    40   ar
    36    40    41   ar
    37     1    49    1
    38    49    50    1
    39    50    51   ar
    40    51    52   ar
    41    52    53   ar
    42    53    54   ar
    43    54    55   ar
    44     6     7    1
    45     7     8    1
    46     8     9    1
    47     9    10    1
    48    10    11    1
    49    22    23   ar
    50    23    24   ar
    51    24    20   ar
    52    11     6    1
    53    48    43   ar
    54    41    37   ar
    55    55    50   ar
    56    17    18    1
    57     4     5    1
    58    31    34    1
    59     9    12    1
@<TRIPOS>MOLECULE
*****
 55 59 0 0 0
SMALL
GASTEIGER

@<TRIPOS>ATOM
      1 C          62.3921   85.6414   10.6146 C.3     1  UNL1        0.0760
      2 C          62.0157   88.0446   11.5272 C.2     1  UNL1        0.2384
      3 O          63.3969   88.0388   12.1121 O.2     1  UNL1       -0.2734
      4 N          61.5133   86.8459   10.7784 N.am    1  UNL1       -0.3044
      5 H          60.6067   86.8497   10.3945 H       1  UNL1        0.1494
      6 C          61.1369   89.2491   11.6910 C.3     1  UNL1        0.1293
      7 C          60.1093   88.2278   11.3024 C.3     1  UNL1        0.0440
      8 C          58.6657   88.6205   11.1928 C.3     1  UNL1        0.0707
      9 N          58.2498   90.0343   11.4719 N.3     1  UNL1       -0.2973
     10 C          59.2773   91.0556   11.8605 C.3     1  UNL1        0.0707
     11 C          60.7209   90.6629   11.9701 C.3     1  UNL1        0.0440
     12 H          57.5700   89.9968   12.2314 H       1  UNL1        0.1232
     13 N          64.4331   91.4423   11.4177 N.am    1  UNL1       -0.2567
     14 C          65.0636   92.4298   10.4810 C.3     1  UNL1        0.1168
     15 C          63.1002   90.8394   11.0860 C.2     1  UNL1        0.3046
     16 O          62.3980   91.2239    9.8176 O.2     1  UNL1       -0.2526
     17 N          62.4697   89.8520   12.0228 N.am    1  UNL1       -0.2840
     18 H          62.9306   89.5997   12.8553 H       1  UNL1        0.1513
     19 C          65.1353   91.0579   12.6862 C.3     1  UNL1        0.1413
     20 C          67.6466   93.0458   14.8787 C.ar    1  UNL1        0.0875
     21 N          67.0417   91.7494   14.4277 N.ar    1  UNL1       -0.2453
     22 C          65.9912   92.0598   13.4028 C.ar    1  UNL1        0.0858
     23 C          65.9470   93.5480   13.2205 C.ar    1  UNL1        0.0530
     24 S          66.9701   94.1574   14.1327 S.2     1  UNL1       -0.0705
     25 C          69.1212   92.0446   16.7690 C.3     1  UNL1        0.0069
     26 C          68.7367   93.2029   15.8971 C.3     1  UNL1        0.0465
     27 C          69.4423   94.5185   16.0434 C.3     1  UNL1        0.0069
     28 C          62.5017   84.6366   11.7228 C.3     1  UNL1        0.0216
     29 C          62.7599   85.0945   13.1276 C.3     1  UNL1        0.0217
     30 C          63.9009   84.5125   13.9084 C.3     1  UNL1        0.0792
     31 N          64.1524   83.0341   13.8796 N.am    1  UNL1       -0.2720
     32 C          63.0958   82.0840   14.3604 C.2     1  UNL1        0.4019
     33 O          61.7877   82.6125   14.8699 O.2     1  UNL1       -0.2264
     34 H          65.0110   82.6872   13.5452 H       1  UNL1        0.1527
     35 O          63.3473   80.6056   14.3316 O.3     1  UNL1       -0.4291
     36 C          62.5511   79.7271   13.4128 C.3     1  UNL1        0.2447
     37 C          62.7373   79.8308   11.9280 C.ar    1  UNL1        0.0714
     38 C          63.1270   81.0666   11.1724 C.ar    1  UNL1        0.1053
     39 N          63.1970   80.7165    9.7155 N.ar    1  UNL1       -0.2350
     40 C          62.8505   79.2642    9.5707 C.ar    1  UNL1        0.1343
     41 S          62.5664   78.7169   10.9380 S.2     1  UNL1       -0.0652
     42 C          64.7902   85.4090   14.7179 C.3     1  UNL1        0.0460
     43 C          64.2127   86.6010   15.4221 C.ar    1  UNL1       -0.0205
     44 C          63.4133   86.4157   16.6777 C.ar    1  UNL1       -0.0042
     45 C          62.8359   87.6076   17.3819 C.ar    1  UNL1       -0.0003
     46 C          63.0578   88.9848   16.8304 C.ar    1  UNL1       -0.0000
     47 C          63.8572   89.1701   15.5747 C.ar    1  UNL1       -0.0003
     48 C          64.4347   87.9781   14.8706 C.ar    1  UNL1       -0.0042
     49 C          63.1614   85.4418    9.3424 C.3     1  UNL1        0.0459
     50 C          62.4338   85.1461    8.0644 C.ar    1  UNL1       -0.0205
     51 C          63.1509   84.4738    6.9314 C.ar    1  UNL1       -0.0042
     52 C          62.4232   84.1780    5.6535 C.ar    1  UNL1       -0.0003
     53 C          60.9785   84.5546    5.5086 C.ar    1  UNL1       -0.0000
     54 C          60.2614   85.2270    6.6417 C.ar    1  UNL1       -0.0003
     55 C          60.9891   85.5227    7.9196 C.ar    1  UNL1       -0.0042
@<TRIPOS>BOND
     1    25    26    1
     2    26    27    1
     3    26    20    1
     4    20    21   ar
     5    21    22   ar
     6    22    19    1
     7    19    13    1
     8    13    14    1
     9    13    15   am
    10    15    16    2
    11    15    17   am
    12    17     6    1
    13     6     2    1
    14     2     3    2
    15     2     4   am
    16     4     1    1
    17     1    28    1
    18    28    29    1
    19    30    29    1
    20    30    42    1
    21    42    43    1
    22    43    44   ar
    23    44    45   ar
    24    45    46   ar
    25    46    47   ar
    26    47    48   ar
    27    30    31    1
    28    31    32   am
    29    32    33    2
    30    32    35    1
    31    35    36    1
    32    36    37    1
    33    37    38   ar
    34    38    39   ar
    35    39    40   ar
    36    40    41   ar
    37     1    49    1
    38    49    50    1
    39    50    51   ar
    40    51    52   ar
    41    52    53   ar
    42    53    54   ar
    43    54    55   ar
    44     6     7    1
    45     7     8    1
    46     8     9    1
    47     9    10    1
    48    10    11    1
    49    22    23   ar
    50    23    24   ar
    51    24    20   ar
    52    11     6    1
    53    48    43   ar
    54    41    37   ar
    55    55    50   ar
    56    17    18    1
    57     4     5    1
    58    31    34    1
    59     9    12    1
@<TRIPOS>MOLECULE
*****
 55 59 0 0 0
SMALL
GASTEIGER

@<TRIPOS>ATOM
      1 C          62.4127   86.4130   10.0846 C.3     1  UNL1        0.0760
      2 C          60.5812   87.8995    8.9958 C.2     1  UNL1        0.2384
      3 O          59.5174   87.0367    9.6072 O.2     1  UNL1       -0.2734
      4 N          62.0288   87.5877    9.2345 N.am    1  UNL1       -0.3044
      5 H          62.7270   88.1540    8.8331 H       1  UNL1        0.1494
      6 C          60.1973   89.0742    8.1456 C.3     1  UNL1        0.1293
      7 C          59.1931   88.0676    7.6677 C.3     1  UNL1        0.0440
      8 C          58.2001   88.4436    6.6082 C.3     1  UNL1        0.0707
      9 N          58.2113   89.8261    6.0266 N.3     1  UNL1       -0.2973
     10 C          59.2154   90.8328    6.5045 C.3     1  UNL1        0.0707
     11 C          60.2084   90.4568    7.5640 C.3     1  UNL1        0.0440
     12 H          57.2888   90.2256    6.1992 H       1  UNL1        0.1232
     13 N          62.2690   90.6984   11.1155 N.am    1  UNL1       -0.2567
     14 C          62.0657   91.1253   12.5390 C.3     1  UNL1        0.1168
     15 C          61.1315   90.0998   10.3423 C.2     1  UNL1        0.3046
     16 O          59.7908   89.9281   10.9927 O.2     1  UNL1       -0.2526
     17 N          61.3348   89.6728    8.9188 N.am    1  UNL1       -0.2840
     18 H          62.2147   89.7855    8.4919 H       1  UNL1        0.1513
     19 C          63.6096   90.8701   10.4652 C.3     1  UNL1        0.1413
     20 C          65.8161   94.0233   10.9697 C.ar    1  UNL1        0.0875
     21 N          64.8672   93.2068   10.1433 N.ar    1  UNL1       -0.2453
     22 C          64.5273   91.9674   10.9167 C.ar    1  UNL1        0.0858
     23 C          65.2662   92.0178   12.2212 C.ar    1  UNL1        0.0530
     24 S          66.0627   93.2885   12.2539 S.2     1  UNL1       -0.0705
     25 C          67.4047   95.4151    9.4567 C.3     1  UNL1        0.0069
     26 C          66.4136   95.3429   10.5802 C.3     1  UNL1        0.0465
     27 C          66.0198   96.5903   11.3143 C.3     1  UNL1        0.0069
     28 C          62.4054   86.5348   11.5796 C.3     1  UNL1        0.0216
     29 C          62.4009   85.3010   12.4326 C.3     1  UNL1        0.0217
     30 C          63.5642   85.0073   13.3329 C.3     1  UNL1        0.0792
     31 N          63.8347   85.8846   14.5191 N.am    1  UNL1       -0.2720
     32 C          63.2491   85.5395   15.8563 C.2     1  UNL1        0.4019
     33 O          62.3929   84.3171   16.0071 O.2     1  UNL1       -0.2264
     34 H          64.3967   86.6869   14.4201 H       1  UNL1        0.1527
     35 O          63.5196   86.4168   17.0425 O.3     1  UNL1       -0.4291
     36 C          62.8509   87.7548   17.1539 C.3     1  UNL1        0.2447
     37 C          63.3844   88.9263   16.3838 C.ar    1  UNL1        0.0714
     38 C          63.2023   90.3720   16.7396 C.ar    1  UNL1        0.1053
     39 N          63.8991   91.1970   15.6984 N.ar    1  UNL1       -0.2350
     40 C          64.5118   90.2610   14.6991 C.ar    1  UNL1        0.1343
     41 S          64.1937   88.8577   15.1227 S.2     1  UNL1       -0.0652
     42 C          64.4570   83.8364   13.0469 C.3     1  UNL1        0.0460
     43 C          63.8793   82.5738   12.4792 C.ar    1  UNL1       -0.0205
     44 C          63.9747   82.3009   11.0073 C.ar    1  UNL1       -0.0042
     45 C          63.3970   81.0383   10.4397 C.ar    1  UNL1       -0.0003
     46 C          62.7239   80.0487   11.3440 C.ar    1  UNL1       -0.0000
     47 C          62.6285   80.3216   12.8158 C.ar    1  UNL1       -0.0003
     48 C          63.2062   81.5842   13.3834 C.ar    1  UNL1       -0.0042
     49 C          62.8039   85.1164    9.4397 C.3     1  UNL1        0.0459
     50 C          62.4640   84.8618    8.0010 C.ar    1  UNL1       -0.0205
     51 C          63.5593   84.6941    6.9900 C.ar    1  UNL1       -0.0042
     52 C          63.2194   84.4395    5.5513 C.ar    1  UNL1       -0.0003
     53 C          61.7843   84.3526    5.1237 C.ar    1  UNL1       -0.0000
     54 C          60.6890   84.5202    6.1348 C.ar    1  UNL1       -0.0003
     55 C          61.0289   84.7748    7.5734 C.ar    1  UNL1       -0.0042
@<TRIPOS>BOND
     1    25    26    1
     2    26    27    1
     3    26    20    1
     4    20    21   ar
     5    21    22   ar
     6    22    19    1
     7    19    13    1
     8    13    14    1
     9    13    15   am
    10    15    16    2
    11    15    17   am
    12    17     6    1
    13     6     2    1
    14     2     3    2
    15     2     4   am
    16     4     1    1
    17     1    28    1
    18    28    29    1
    19    30    29    1
    20    30    42    1
    21    42    43    1
    22    43    44   ar
    23    44    45   ar
    24    45    46   ar
    25    46    47   ar
    26    47    48   ar
    27    30    31    1
    28    31    32   am
    29    32    33    2
    30    32    35    1
    31    35    36    1
    32    36    37    1
    33    37    38   ar
    34    38    39   ar
    35    39    40   ar
    36    40    41   ar
    37     1    49    1
    38    49    50    1
    39    50    51   ar
    40    51    52   ar
    41    52    53   ar
    42    53    54   ar
    43    54    55   ar
    44     6     7    1
    45     7     8    1
    46     8     9    1
    47     9    10    1
    48    10    11    1
    49    22    23   ar
    50    23    24   ar
    51    24    20   ar
    52    11     6    1
    53    48    43   ar
    54    41    37   ar
    55    55    50   ar
    56    17    18    1
    57     4     5    1
    58    31    34    1
    59     9    12    1
