@<TRIPOS>MOLECULE
*****
 28 30 0 0 0
SMALL
GASTEIGER

@<TRIPOS>ATOM
      1 N          63.8702   90.8732   14.3157 N.am    1  UNL1       -0.2680
      2 C          63.3946   90.9073   12.8935 C.2     1  UNL1        0.3102
      3 O          64.2506   91.5309   11.8312 O.2     1  UNL1       -0.2521
      4 N          62.0631   90.3177   12.5337 N.am    1  UNL1       -0.2387
      5 C          61.5875   90.3518   11.1115 C.2     1  UNL1        0.2407
      6 O          62.4434   90.9754   10.0492 O.2     1  UNL1       -0.2737
      7 H          63.3085   90.4639   15.0130 H       1  UNL1        0.1564
      8 H          61.5014   89.9084   13.2309 H       1  UNL1        0.1591
      9 C          69.1964   93.2314   15.7550 C.3     1  UNL1        0.0310
     10 C          67.8648   92.6418   15.3951 C.ar    1  UNL1       -0.0218
     11 C          66.6991   92.7985   16.3260 C.ar    1  UNL1       -0.0030
     12 C          65.3676   92.2089   15.9662 C.ar    1  UNL1        0.0144
     13 C          65.2018   91.4628   14.6756 C.ar    1  UNL1        0.0516
     14 C          66.3676   91.3061   13.7447 C.ar    1  UNL1        0.0144
     15 C          67.6991   91.8957   14.1045 C.ar    1  UNL1       -0.0030
     16 C          60.2560   89.7623   10.7516 C.3     1  UNL1        0.1488
     17 S          59.9276   88.3535   11.1485 S.3     1  UNL1       -0.0840
     18 C          60.8490   87.2328   10.7674 C.ar    1  UNL1        0.1206
     19 N          61.5922   86.4787   11.8299 N.ar    1  UNL1       -0.2364
     20 C          62.5136   85.3580   11.4488 C.ar    1  UNL1        0.0994
     21 C          63.2568   84.6039   12.5113 C.ar    1  UNL1        0.0207
     22 C          64.1781   83.4833   12.1302 C.ar    1  UNL1        0.0016
     23 C          64.3562   83.1167   10.6866 C.ar    1  UNL1        0.0016
     24 C          63.6129   83.8707    9.6241 C.ar    1  UNL1        0.0206
     25 C          62.6916   84.9914   10.0052 C.ar    1  UNL1        0.0986
     26 N          61.9483   85.7455    8.9427 N.ar    1  UNL1       -0.2461
     27 C          61.0270   86.8662    9.3238 C.ar    1  UNL1        0.0828
     28 C          60.2837   87.6203    8.2613 C.3     1  UNL1        0.0543
@<TRIPOS>BOND
     1     9    10    1
     2    10    11   ar
     3    11    12   ar
     4    12    13   ar
     5    13     1    1
     6     1     2   am
     7     2     3    2
     8     2     4   am
     9     4     5   am
    10     5     6    2
    11     5    16    1
    12    16    17    1
    13    17    18    1
    14    18    19   ar
    15    19    20   ar
    16    20    21   ar
    17    21    22   ar
    18    22    23   ar
    19    23    24   ar
    20    24    25   ar
    21    25    26   ar
    22    26    27   ar
    23    27    28    1
    24    13    14   ar
    25    14    15   ar
    26    15    10   ar
    27    27    18   ar
    28    25    20   ar
    29     1     7    1
    30     4     8    1
@<TRIPOS>MOLECULE
*****
 28 30 0 0 0
SMALL
GASTEIGER

@<TRIPOS>ATOM
      1 N          63.2690   86.2855   13.0613 N.am    1  UNL1       -0.2680
      2 C          62.7299   87.1366   11.9501 C.2     1  UNL1        0.3102
      3 O          62.0068   86.4995   10.8005 O.2     1  UNL1       -0.2521
      4 N          62.9137   88.6248   11.9883 N.am    1  UNL1       -0.2387
      5 C          62.3746   89.4760   10.8770 C.2     1  UNL1        0.2407
      6 O          61.6516   88.8389    9.7275 O.2     1  UNL1       -0.2737
      7 H          63.7435   86.7036   13.8158 H       1  UNL1        0.1564
      8 H          63.3882   89.0429   12.7428 H       1  UNL1        0.1591
      9 C          62.5335   80.3327   12.9080 C.3     1  UNL1        0.0310
     10 C          62.7174   81.8209   12.9463 C.ar    1  UNL1       -0.0218
     11 C          62.3806   82.5864   14.1916 C.ar    1  UNL1       -0.0030
     12 C          62.5645   84.0746   14.2299 C.ar    1  UNL1        0.0144
     13 C          63.0851   84.7973   13.0230 C.ar    1  UNL1        0.0516
     14 C          63.4219   84.0318   11.7778 C.ar    1  UNL1        0.0144
     15 C          63.2380   82.5436   11.7394 C.ar    1  UNL1       -0.0030
     16 C          62.5584   90.9641   10.9153 C.3     1  UNL1        0.1488
     17 S          63.8782   91.5668   10.5346 S.3     1  UNL1       -0.0840
     18 C          64.8444   91.9910   11.6007 C.ar    1  UNL1        0.1206
     19 N          64.5294   91.7325   13.0443 N.ar    1  UNL1       -0.2364
     20 C          65.4957   92.1567   14.1104 C.ar    1  UNL1        0.0994
     21 C          65.1807   91.8982   15.5540 C.ar    1  UNL1        0.0207
     22 C          66.1469   92.3224   16.6200 C.ar    1  UNL1        0.0016
     23 C          67.4281   93.0051   16.2425 C.ar    1  UNL1        0.0016
     24 C          67.7431   93.2636   14.7989 C.ar    1  UNL1        0.0206
     25 C          66.7769   92.8394   13.7329 C.ar    1  UNL1        0.0986
     26 N          67.0918   93.0979   12.2892 N.ar    1  UNL1       -0.2461
     27 C          66.1256   92.6737   11.2232 C.ar    1  UNL1        0.0828
     28 C          66.4406   92.9322    9.7795 C.3     1  UNL1        0.0543
@<TRIPOS>BOND
     1     9    10    1
     2    10    11   ar
     3    11    12   ar
     4    12    13   ar
     5    13     1    1
     6     1     2   am
     7     2     3    2
     8     2     4   am
     9     4     5   am
    10     5     6    2
    11     5    16    1
    12    16    17    1
    13    17    18    1
    14    18    19   ar
    15    19    20   ar
    16    20    21   ar
    17    21    22   ar
    18    22    23   ar
    19    23    24   ar
    20    24    25   ar
    21    25    26   ar
    22    26    27   ar
    23    27    28    1
    24    13    14   ar
    25    14    15   ar
    26    15    10   ar
    27    27    18   ar
    28    25    20   ar
    29     1     7    1
    30     4     8    1
@<TRIPOS>MOLECULE
*****
 28 30 0 0 0
SMALL
GASTEIGER

@<TRIPOS>ATOM
      1 N          61.4287   90.0995   11.8784 N.am    1  UNL1       -0.2680
      2 C          62.5793   89.8104   12.7962 C.2     1  UNL1        0.3102
      3 O          63.3464   88.5289   12.6566 O.2     1  UNL1       -0.2521
      4 N          62.9628   90.8026   13.8537 N.am    1  UNL1       -0.2387
      5 C          64.1134   90.5135   14.7716 C.2     1  UNL1        0.2407
      6 O          64.8805   89.2321   14.6320 O.2     1  UNL1       -0.2737
      7 H          60.9252   90.9406   11.9700 H       1  UNL1        0.1564
      8 H          62.4593   91.6437   13.9454 H       1  UNL1        0.1591
      9 C          59.8947   86.1303    7.6484 C.3     1  UNL1        0.0310
     10 C          60.2782   87.1226    8.7060 C.ar    1  UNL1       -0.0218
     11 C          60.0783   88.5897    8.4656 C.ar    1  UNL1       -0.0030
     12 C          60.4618   89.5820    9.5231 C.ar    1  UNL1        0.0144
     13 C          61.0452   89.1072   10.8209 C.ar    1  UNL1        0.0516
     14 C          61.2451   87.6402   11.0612 C.ar    1  UNL1        0.0144
     15 C          60.8616   86.6478   10.0037 C.ar    1  UNL1       -0.0030
     16 C          64.4969   91.5057   15.8291 C.3     1  UNL1        0.1488
     17 S          65.4836   92.5914   15.5164 S.3     1  UNL1       -0.0840
     18 C          66.2563   92.5552   14.2312 C.ar    1  UNL1        0.1206
     19 N          65.6899   93.1929   12.9973 N.ar    1  UNL1       -0.2364
     20 C          66.4626   93.1567   11.7121 C.ar    1  UNL1        0.0994
     21 C          65.8962   93.7944   10.4782 C.ar    1  UNL1        0.0207
     22 C          66.6689   93.7582    9.1931 C.ar    1  UNL1        0.0016
     23 C          68.0080   93.0843    9.1418 C.ar    1  UNL1        0.0016
     24 C          68.5744   92.4466   10.3757 C.ar    1  UNL1        0.0206
     25 C          67.8017   92.4828   11.6608 C.ar    1  UNL1        0.0986
     26 N          68.3681   91.8451   12.8948 N.ar    1  UNL1       -0.2461
     27 C          67.5954   91.8813   14.1799 C.ar    1  UNL1        0.0828
     28 C          68.1619   91.2436   15.4139 C.3     1  UNL1        0.0543
@<TRIPOS>BOND
     1     9    10    1
     2    10    11   ar
     3    11    12   ar
     4    12    13   ar
     5    13     1    1
     6     1     2   am
     7     2     3    2
     8     2     4   am
     9     4     5   am
    10     5     6    2
    11     5    16    1
    12    16    17    1
    13    17    18    1
    14    18    19   ar
    15    19    20   ar
    16    20    21   ar
    17    21    22   ar
    18    22    23   ar
    19    23    24   ar
    20    24    25   ar
    21    25    26   ar
    22    26    27   ar
    23    27    28    1
    24    13    14   ar
    25    14    15   ar
    26    15    10   ar
    27    27    18   ar
    28    25    20   ar
    29     1     7    1
    30     4     8    1
@<TRIPOS>MOLECULE
*****
 28 30 0 0 0
SMALL
GASTEIGER

@<TRIPOS>ATOM
      1 N          60.6229   87.0917   11.1218 N.am    1  UNL1       -0.2680
      2 C          61.6906   86.0381   11.1194 C.2     1  UNL1        0.3102
      3 O          62.3653   85.6570    9.8351 O.2     1  UNL1       -0.2521
      4 N          62.0836   85.3658   12.4014 N.am    1  UNL1       -0.2387
      5 C          63.1513   84.3122   12.3990 C.2     1  UNL1        0.2407
      6 O          63.8259   83.9310   11.1148 O.2     1  UNL1       -0.2737
      7 H          60.1800   87.3419   11.9647 H       1  UNL1        0.1564
      8 H          61.6407   85.6160   13.2443 H       1  UNL1        0.1591
      9 C          59.0509   89.7811    5.9938 C.3     1  UNL1        0.0310
     10 C          59.4439   89.1087    7.2758 C.ar    1  UNL1       -0.0218
     11 C          60.1997   89.8727    8.3223 C.ar    1  UNL1       -0.0030
     12 C          60.5927   89.2004    9.6043 C.ar    1  UNL1        0.0144
     13 C          60.2299   87.7641    9.8398 C.ar    1  UNL1        0.0516
     14 C          59.4741   87.0002    8.7933 C.ar    1  UNL1        0.0144
     15 C          59.0811   87.6725    7.5113 C.ar    1  UNL1       -0.0030
     16 C          63.5443   83.6398   13.6810 C.3     1  UNL1        0.1488
     17 S          64.4670   84.3329   14.6392 S.3     1  UNL1       -0.0840
     18 C          64.1201   85.6955   15.1617 C.ar    1  UNL1        0.1206
     19 N          64.6621   86.9190   14.4840 N.ar    1  UNL1       -0.2364
     20 C          64.3152   88.2817   15.0065 C.ar    1  UNL1        0.0994
     21 C          64.8572   89.5051   14.3289 C.ar    1  UNL1        0.0207
     22 C          64.5103   90.8677   14.8514 C.ar    1  UNL1        0.0016
     23 C          63.6214   91.0067   16.0516 C.ar    1  UNL1        0.0016
     24 C          63.0794   89.7833   16.7293 C.ar    1  UNL1        0.0206
     25 C          63.4263   88.4207   16.2068 C.ar    1  UNL1        0.0986
     26 N          62.8843   87.1972   16.8844 N.ar    1  UNL1       -0.2461
     27 C          63.2312   85.8346   16.3619 C.ar    1  UNL1        0.0828
     28 C          62.6892   84.6110   17.0396 C.3     1  UNL1        0.0543
@<TRIPOS>BOND
     1     9    10    1
     2    10    11   ar
     3    11    12   ar
     4    12    13   ar
     5    13     1    1
     6     1     2   am
     7     2     3    2
     8     2     4   am
     9     4     5   am
    10     5     6    2
    11     5    16    1
    12    16    17    1
    13    17    18    1
    14    18    19   ar
    15    19    20   ar
    16    20    21   ar
    17    21    22   ar
    18    22    23   ar
    19    23    24   ar
    20    24    25   ar
    21    25    26   ar
    22    26    27   ar
    23    27    28    1
    24    13    14   ar
    25    14    15   ar
    26    15    10   ar
    27    27    18   ar
    28    25    20   ar
    29     1     7    1
    30     4     8    1
@<TRIPOS>MOLECULE
*****
 28 30 0 0 0
SMALL
GASTEIGER

@<TRIPOS>ATOM
      1 N          64.1927   85.0848   14.7747 N.am    1  UNL1       -0.2680
      2 C          63.8406   86.3571   14.0625 C.2     1  UNL1        0.3102
      3 O          63.0709   86.3081   12.7759 O.2     1  UNL1       -0.2521
      4 N          64.2582   87.6784   14.6367 N.am    1  UNL1       -0.2387
      5 C          63.9061   88.9507   13.9245 C.2     1  UNL1        0.2407
      6 O          63.1364   88.9017   12.6380 O.2     1  UNL1       -0.2737
      7 H          64.6979   85.1170   15.6191 H       1  UNL1        0.1564
      8 H          64.7634   87.7106   15.4811 H       1  UNL1        0.1591
      9 C          62.5222   79.7997   12.4775 C.3     1  UNL1        0.0310
     10 C          62.9399   81.1210   13.0518 C.ar    1  UNL1       -0.0218
     11 C          64.0751   81.8822   12.4339 C.ar    1  UNL1       -0.0030
     12 C          64.4927   83.2035   13.0082 C.ar    1  UNL1        0.0144
     13 C          63.7751   83.7635   14.2004 C.ar    1  UNL1        0.0516
     14 C          62.6399   83.0023   14.8183 C.ar    1  UNL1        0.0144
     15 C          62.2223   81.6811   14.2440 C.ar    1  UNL1       -0.0030
     16 C          64.3237   90.2720   14.4987 C.3     1  UNL1        0.1488
     17 S          65.7190   90.7773   14.2805 S.3     1  UNL1       -0.0840
     18 C          65.9401   92.1281   13.6669 C.ar    1  UNL1        0.1206
     19 N          65.6157   92.3570   12.2205 N.ar    1  UNL1       -0.2364
     20 C          65.8368   93.7079   11.6069 C.ar    1  UNL1        0.0994
     21 C          65.5124   93.9368   10.1604 C.ar    1  UNL1        0.0207
     22 C          65.7335   95.2876    9.5469 C.ar    1  UNL1        0.0016
     23 C          66.2790   96.4094   10.3798 C.ar    1  UNL1        0.0016
     24 C          66.6034   96.1805   11.8263 C.ar    1  UNL1        0.0206
     25 C          66.3823   94.8298   12.4398 C.ar    1  UNL1        0.0986
     26 N          66.7067   94.6008   13.8864 N.ar    1  UNL1       -0.2461
     27 C          66.4856   93.2500   14.4999 C.ar    1  UNL1        0.0828
     28 C          66.8101   93.0210   15.9464 C.3     1  UNL1        0.0543
@<TRIPOS>BOND
     1     9    10    1
     2    10    11   ar
     3    11    12   ar
     4    12    13   ar
     5    13     1    1
     6     1     2   am
     7     2     3    2
     8     2     4   am
     9     4     5   am
    10     5     6    2
    11     5    16    1
    12    16    17    1
    13    17    18    1
    14    18    19   ar
    15    19    20   ar
    16    20    21   ar
    17    21    22   ar
    18    22    23   ar
    19    23    24   ar
    20    24    25   ar
    21    25    26   ar
    22    26    27   ar
    23    27    28    1
    24    13    14   ar
    25    14    15   ar
    26    15    10   ar
    27    27    18   ar
    28    25    20   ar
    29     1     7    1
    30     4     8    1
@<TRIPOS>MOLECULE
*****
 28 30 0 0 0
SMALL
GASTEIGER

@<TRIPOS>ATOM
      1 N          62.3731   87.7867   10.3948 N.am    1  UNL1       -0.2680
      2 C          62.8995   87.2397   11.6885 C.2     1  UNL1        0.3102
      3 O          63.0979   85.7619   11.8525 O.2     1  UNL1       -0.2521
      4 N          63.2274   88.1704   12.8182 N.am    1  UNL1       -0.2387
      5 C          63.7537   87.6234   14.1119 C.2     1  UNL1        0.2407
      6 O          63.9522   86.1457   14.2760 O.2     1  UNL1       -0.2737
      7 H          62.2429   88.7566   10.2871 H       1  UNL1        0.1564
      8 H          63.0971   89.1403   12.7105 H       1  UNL1        0.1591
      9 C          61.0617   84.0635    5.8761 C.3     1  UNL1        0.0310
     10 C          61.3896   84.9943    7.0058 C.ar    1  UNL1       -0.0218
     11 C          60.3331   85.9046    7.5582 C.ar    1  UNL1       -0.0030
     12 C          60.6609   86.8354    8.6879 C.ar    1  UNL1        0.0144
     13 C          62.0452   86.8559    9.2651 C.ar    1  UNL1        0.0516
     14 C          63.1017   85.9456    8.7126 C.ar    1  UNL1        0.0144
     15 C          62.7739   85.0148    7.5829 C.ar    1  UNL1       -0.0030
     16 C          64.0816   88.5542   15.2416 C.3     1  UNL1        0.1488
     17 S          63.5528   89.9578   15.2345 S.3     1  UNL1       -0.0840
     18 C          64.3062   91.0395   14.5185 C.ar    1  UNL1        0.1206
     19 N          64.3152   91.0808   13.0191 N.ar    1  UNL1       -0.2364
     20 C          65.0686   92.1624   12.3031 C.ar    1  UNL1        0.0994
     21 C          65.0776   92.2037   10.8037 C.ar    1  UNL1        0.0207
     22 C          65.8310   93.2853   10.0878 C.ar    1  UNL1        0.0016
     23 C          66.5753   94.3256   10.8712 C.ar    1  UNL1        0.0016
     24 C          66.5663   94.2843   12.3706 C.ar    1  UNL1        0.0206
     25 C          65.8129   93.2027   13.0865 C.ar    1  UNL1        0.0986
     26 N          65.8038   93.1614   14.5860 N.ar    1  UNL1       -0.2461
     27 C          65.0505   92.0798   15.3019 C.ar    1  UNL1        0.0828
     28 C          65.0414   92.0384   16.8014 C.3     1  UNL1        0.0543
@<TRIPOS>BOND
     1     9    10    1
     2    10    11   ar
     3    11    12   ar
     4    12    13   ar
     5    13     1    1
     6     1     2   am
     7     2     3    2
     8     2     4   am
     9     4     5   am
    10     5     6    2
    11     5    16    1
    12    16    17    1
    13    17    18    1
    14    18    19   ar
    15    19    20   ar
    16    20    21   ar
    17    21    22   ar
    18    22    23   ar
    19    23    24   ar
    20    24    25   ar
    21    25    26   ar
    22    26    27   ar
    23    27    28    1
    24    13    14   ar
    25    14    15   ar
    26    15    10   ar
    27    27    18   ar
    28    25    20   ar
    29     1     7    1
    30     4     8    1
@<TRIPOS>MOLECULE
*****
 28 30 0 0 0
SMALL
GASTEIGER

@<TRIPOS>ATOM
      1 N          62.9960   85.6735   12.5362 N.am    1  UNL1       -0.2680
      2 C          62.1736   86.4363   11.5403 C.2     1  UNL1        0.3102
      3 O          61.1364   85.7252   10.7225 O.2     1  UNL1       -0.2521
      4 N          62.3883   87.9101   11.3622 N.am    1  UNL1       -0.2387
      5 C          61.5659   88.6729   10.3663 C.2     1  UNL1        0.2407
      6 O          60.5288   87.9619    9.5485 O.2     1  UNL1       -0.2737
      7 H          63.6767   86.1402   13.0729 H       1  UNL1        0.1564
      8 H          63.0690   88.3768   11.8989 H       1  UNL1        0.1591
      9 C          62.1369   79.7782   13.2487 C.3     1  UNL1        0.0310
     10 C          62.3517   81.2521   13.0706 C.ar    1  UNL1       -0.0218
     11 C          62.8244   81.7871   11.7514 C.ar    1  UNL1       -0.0030
     12 C          63.0391   83.2609   11.5732 C.ar    1  UNL1        0.0144
     13 C          62.7812   84.1997   12.7143 C.ar    1  UNL1        0.0516
     14 C          62.3086   83.6647   14.0335 C.ar    1  UNL1        0.0144
     15 C          62.0938   82.1909   14.2117 C.ar    1  UNL1       -0.0030
     16 C          61.7806   90.1467   10.1881 C.3     1  UNL1        0.1488
     17 S          63.1667   90.7161   10.2548 S.3     1  UNL1       -0.0840
     18 C          63.7376   91.1477   11.5731 C.ar    1  UNL1        0.1206
     19 N          63.2352   90.5325   12.8455 N.ar    1  UNL1       -0.2364
     20 C          63.8061   90.9641   14.1638 C.ar    1  UNL1        0.0994
     21 C          63.3037   90.3489   15.4362 C.ar    1  UNL1        0.0207
     22 C          63.8746   90.7805   16.7544 C.ar    1  UNL1        0.0016
     23 C          64.9479   91.8273   16.8003 C.ar    1  UNL1        0.0016
     24 C          65.4503   92.4425   15.5279 C.ar    1  UNL1        0.0206
     25 C          64.8794   92.0109   14.2097 C.ar    1  UNL1        0.0986
     26 N          65.3819   92.6262   12.9372 N.ar    1  UNL1       -0.2461
     27 C          64.8110   92.1946   11.6190 C.ar    1  UNL1        0.0828
     28 C          65.3134   92.8098   10.3465 C.3     1  UNL1        0.0543
@<TRIPOS>BOND
     1     9    10    1
     2    10    11   ar
     3    11    12   ar
     4    12    13   ar
     5    13     1    1
     6     1     2   am
     7     2     3    2
     8     2     4   am
     9     4     5   am
    10     5     6    2
    11     5    16    1
    12    16    17    1
    13    17    18    1
    14    18    19   ar
    15    19    20   ar
    16    20    21   ar
    17    21    22   ar
    18    22    23   ar
    19    23    24   ar
    20    24    25   ar
    21    25    26   ar
    22    26    27   ar
    23    27    28    1
    24    13    14   ar
    25    14    15   ar
    26    15    10   ar
    27    27    18   ar
    28    25    20   ar
    29     1     7    1
    30     4     8    1
@<TRIPOS>MOLECULE
*****
 28 30 0 0 0
SMALL
GASTEIGER

@<TRIPOS>ATOM
      1 N          62.1246   86.4946   10.7387 N.am    1  UNL1       -0.2680
      2 C          62.5493   87.9210   10.9257 C.2     1  UNL1        0.3102
      3 O          62.7776   88.7984    9.7306 O.2     1  UNL1       -0.2521
      4 N          62.7456   88.4701   12.3077 N.am    1  UNL1       -0.2387
      5 C          63.1703   89.8965   12.4946 C.2     1  UNL1        0.2407
      6 O          63.3986   90.7739   11.2996 O.2     1  UNL1       -0.2737
      7 H          61.9747   85.9187   11.5230 H       1  UNL1        0.1564
      8 H          62.5957   87.8942   13.0920 H       1  UNL1        0.1591
      9 C          61.3393   84.2984    5.2105 C.3     1  UNL1        0.0310
     10 C          61.5357   84.8474    6.5926 C.ar    1  UNL1       -0.0218
     11 C          60.4157   85.5732    7.2774 C.ar    1  UNL1       -0.0030
     12 C          60.6120   86.1222    8.6594 C.ar    1  UNL1        0.0144
     13 C          61.9282   85.9455    9.3566 C.ar    1  UNL1        0.0516
     14 C          63.0482   85.2198    8.6718 C.ar    1  UNL1        0.0144
     15 C          62.8519   84.6708    7.2898 C.ar    1  UNL1       -0.0030
     16 C          63.3666   90.4456   13.8766 C.3     1  UNL1        0.1488
     17 S          64.2052   89.6963   14.8692 S.3     1  UNL1       -0.0840
     18 C          63.9294   88.2472   15.1418 C.ar    1  UNL1        0.1206
     19 N          64.2812   87.2109   14.1160 N.ar    1  UNL1       -0.2364
     20 C          64.0054   85.7618   14.3885 C.ar    1  UNL1        0.0994
     21 C          64.3572   84.7256   13.3627 C.ar    1  UNL1        0.0207
     22 C          64.0813   83.2766   13.6353 C.ar    1  UNL1        0.0016
     23 C          63.4537   82.8639   14.9336 C.ar    1  UNL1        0.0016
     24 C          63.1018   83.9002   15.9594 C.ar    1  UNL1        0.0206
     25 C          63.3777   85.3492   15.6869 C.ar    1  UNL1        0.0986
     26 N          63.0259   86.3855   16.7127 N.ar    1  UNL1       -0.2461
     27 C          63.3017   87.8345   16.4401 C.ar    1  UNL1        0.0828
     28 C          62.9499   88.8709   17.4659 C.3     1  UNL1        0.0543
@<TRIPOS>BOND
     1     9    10    1
     2    10    11   ar
     3    11    12   ar
     4    12    13   ar
     5    13     1    1
     6     1     2   am
     7     2     3    2
     8     2     4   am
     9     4     5   am
    10     5     6    2
    11     5    16    1
    12    16    17    1
    13    17    18    1
    14    18    19   ar
    15    19    20   ar
    16    20    21   ar
    17    21    22   ar
    18    22    23   ar
    19    23    24   ar
    20    24    25   ar
    21    25    26   ar
    22    26    27   ar
    23    27    28    1
    24    13    14   ar
    25    14    15   ar
    26    15    10   ar
    27    27    18   ar
    28    25    20   ar
    29     1     7    1
    30     4     8    1
@<TRIPOS>MOLECULE
*****
 28 30 0 0 0
SMALL
GASTEIGER

@<TRIPOS>ATOM
      1 N          64.1789   91.0494   13.9067 N.am    1  UNL1       -0.2680
      2 C          63.7970   91.2211   12.4664 C.2     1  UNL1        0.3102
      3 O          64.7180   91.9419   11.5270 O.2     1  UNL1       -0.2521
      4 N          62.4942   90.6719   11.9653 N.am    1  UNL1       -0.2387
      5 C          62.1123   90.8436   10.5249 C.2     1  UNL1        0.2407
      6 O          63.0332   91.5644    9.5856 O.2     1  UNL1       -0.2737
      7 H          63.5745   90.5763   14.5232 H       1  UNL1        0.1564
      8 H          61.8898   90.1988   12.5818 H       1  UNL1        0.1591
      9 C          69.3903   93.2460   15.9110 C.3     1  UNL1        0.0310
     10 C          68.0874   92.6969   15.4099 C.ar    1  UNL1       -0.0218
     11 C          68.0130   92.0636   14.0522 C.ar    1  UNL1       -0.0030
     12 C          66.7102   91.5145   13.5511 C.ar    1  UNL1        0.0144
     13 C          65.4818   91.5986   14.4078 C.ar    1  UNL1        0.0516
     14 C          65.5562   92.2318   15.7655 C.ar    1  UNL1        0.0144
     15 C          66.8590   92.7809   16.2666 C.ar    1  UNL1       -0.0030
     16 C          60.8095   90.2945   10.0238 C.3     1  UNL1        0.1488
     17 S          60.7849   89.0087    9.2518 S.3     1  UNL1       -0.0840
     18 C          61.2446   87.7361    9.8993 C.ar    1  UNL1        0.1206
     19 N          62.1630   86.8081    9.1609 N.ar    1  UNL1       -0.2364
     20 C          62.6227   85.5355    9.8085 C.ar    1  UNL1        0.0994
     21 C          63.5410   84.6074    9.0701 C.ar    1  UNL1        0.0207
     22 C          64.0007   83.3349    9.7177 C.ar    1  UNL1        0.0016
     23 C          63.5421   82.9905   11.1037 C.ar    1  UNL1        0.0016
     24 C          62.6237   83.9185   11.8421 C.ar    1  UNL1        0.0206
     25 C          62.1640   85.1910   11.1945 C.ar    1  UNL1        0.0986
     26 N          61.2456   86.1192   11.9329 N.ar    1  UNL1       -0.2461
     27 C          60.7860   87.3917   11.2853 C.ar    1  UNL1        0.0828
     28 C          59.8676   88.3198   12.0238 C.3     1  UNL1        0.0543
@<TRIPOS>BOND
     1     9    10    1
     2    10    11   ar
     3    11    12   ar
     4    12    13   ar
     5    13     1    1
     6     1     2   am
     7     2     3    2
     8     2     4   am
     9     4     5   am
    10     5     6    2
    11     5    16    1
    12    16    17    1
    13    17    18    1
    14    18    19   ar
    15    19    20   ar
    16    20    21   ar
    17    21    22   ar
    18    22    23   ar
    19    23    24   ar
    20    24    25   ar
    21    25    26   ar
    22    26    27   ar
    23    27    28    1
    24    13    14   ar
    25    14    15   ar
    26    15    10   ar
    27    27    18   ar
    28    25    20   ar
    29     1     7    1
    30     4     8    1
