@<TRIPOS>MOLECULE
*****
 28 31 0 0 0
SMALL
GASTEIGER

@<TRIPOS>ATOM
      1 N          66.1096   92.7310   13.5289 N.ar    1  UNL1       -0.3220
      2 C          65.3324   91.5951   14.1253 C.ar    1  UNL1        0.0740
      3 C          64.4741   91.0039   13.0465 C.ar    1  UNL1        0.0211
      4 C          64.7209   91.7744   11.7834 C.ar    1  UNL1        0.0165
      5 C          65.7317   92.8418   12.0815 C.ar    1  UNL1        0.0599
      6 C          66.2700   93.8440   11.1039 C.ar    1  UNL1        0.0159
      7 C          65.8912   95.2901   11.2270 C.ar    1  UNL1        0.0023
      8 C          66.4296   96.2924   10.2495 C.ar    1  UNL1        0.0114
      9 C          67.3467   95.8485    9.1487 C.ar    1  UNL1        0.0577
     10 CL         67.8850   96.8507    8.1711 Cl      1  UNL1       -0.0822
     11 C          67.7255   94.4024    9.0255 C.ar    1  UNL1        0.0114
     12 C          67.1872   93.4001   10.0031 C.ar    1  UNL1        0.0023
     13 C          67.0922   93.6030   14.2528 C.3     1  UNL1        0.1325
     14 C          68.5092   92.3404   16.0271 C.2     1  UNL1       -0.0029
     15 C          67.4282   93.3234   15.6877 C.2     1  UNL1       -0.0018
     16 C          63.5341   89.8456   13.2033 C.3     1  UNL1        0.1336
     17 C          62.6281   89.4565   12.0729 C.ar    1  UNL1        0.0026
     18 C          61.6057   90.4283   11.5626 C.ar    1  UNL1       -0.0013
     19 C          60.6998   90.0393   10.4322 C.ar    1  UNL1        0.0111
     20 C          60.8161   88.6784    9.8121 C.ar    1  UNL1        0.0577
     21 CL         59.9101   88.2894    8.6817 Cl      1  UNL1       -0.0822
     22 C          61.8385   87.7066   10.3224 C.ar    1  UNL1        0.0111
     23 C          62.7444   88.0957   11.4527 C.ar    1  UNL1       -0.0013
     24 N          63.5001   89.0762   14.4905 N.ar    1  UNL1       -0.3019
     25 C          62.9891   89.5822   15.8069 C.ar    1  UNL1        0.0985
     26 C          63.1443   88.4845   16.8173 C.ar    1  UNL1        0.1193
     27 N          63.7512   87.3000   16.1254 N.ar    1  UNL1       -0.2223
     28 C          63.9711   87.6657   14.6874 C.ar    1  UNL1        0.1791
@<TRIPOS>BOND
     1    14    15    2
     2    15    13    1
     3    13     1    1
     4     1     2   ar
     5     2     3   ar
     6     3    16    1
     7    16    17    1
     8    17    18   ar
     9    18    19   ar
    10    19    20   ar
    11    20    21    1
    12    20    22   ar
    13    22    23   ar
    14    16    24    1
    15    24    25   ar
    16    25    26   ar
    17    26    27   ar
    18    27    28   ar
    19     3     4   ar
    20     4     5   ar
    21     5     6    1
    22     6     7   ar
    23     7     8   ar
    24     8     9   ar
    25     9    10    1
    26     9    11   ar
    27    11    12   ar
    28     5     1   ar
    29    12     6   ar
    30    23    17   ar
    31    28    24   ar
@<TRIPOS>MOLECULE
*****
 28 31 0 0 0
SMALL
GASTEIGER

@<TRIPOS>ATOM
      1 N          63.5782   90.4458   13.6735 N.ar    1  UNL1       -0.3220
      2 C          64.7073   91.3633   14.0388 C.ar    1  UNL1        0.0740
      3 C          65.2398   91.9692   12.7743 C.ar    1  UNL1        0.0211
      4 C          64.4399   91.4263   11.6274 C.ar    1  UNL1        0.0165
      5 C          63.4129   90.4848   12.1831 C.ar    1  UNL1        0.0599
      6 C          62.3988   89.7170   11.3882 C.ar    1  UNL1        0.0159
      7 C          61.2488   90.4351   10.7465 C.ar    1  UNL1        0.0023
      8 C          60.2347   89.6673    9.9515 C.ar    1  UNL1        0.0114
      9 C          60.3705   88.1815    9.7982 C.ar    1  UNL1        0.0577
     10 CL         59.3564   87.4137    9.0032 Cl      1  UNL1       -0.0822
     11 C          61.5205   87.4633   10.4398 C.ar    1  UNL1        0.0114
     12 C          62.5346   88.2310   11.2348 C.ar    1  UNL1        0.0023
     13 C          62.7583   89.6323   14.6306 C.3     1  UNL1        0.1325
     14 C          63.0830   88.3355   16.8585 C.2     1  UNL1       -0.0029
     15 C          63.0990   89.6245   16.0914 C.2     1  UNL1       -0.0018
     16 C          66.3733   92.9465   12.6741 C.3     1  UNL1        0.1336
     17 C          66.4821   93.8494   11.4812 C.ar    1  UNL1        0.0026
     18 C          67.0471   93.3264   10.1938 C.ar    1  UNL1       -0.0013
     19 C          67.1558   94.2292    9.0010 C.ar    1  UNL1        0.0111
     20 C          66.6995   95.6550    9.0954 C.ar    1  UNL1        0.0577
     21 CL         66.8082   96.5579    7.9024 Cl      1  UNL1       -0.0822
     22 C          66.1345   96.1780   10.3827 C.ar    1  UNL1        0.0111
     23 C          66.0258   95.2751   11.5756 C.ar    1  UNL1       -0.0013
     24 N          67.3981   93.0210   13.7670 N.ar    1  UNL1       -0.3019
     25 C          67.2804   93.8163   15.0333 C.ar    1  UNL1        0.0985
     26 C          68.5301   93.6001   15.8343 C.ar    1  UNL1        0.1193
     27 N          69.4202   92.6712   15.0630 N.ar    1  UNL1       -0.2223
     28 C          68.7206   92.3134   13.7853 C.ar    1  UNL1        0.1791
@<TRIPOS>BOND
     1    14    15    2
     2    15    13    1
     3    13     1    1
     4     1     2   ar
     5     2     3   ar
     6     3    16    1
     7    16    17    1
     8    17    18   ar
     9    18    19   ar
    10    19    20   ar
    11    20    21    1
    12    20    22   ar
    13    22    23   ar
    14    16    24    1
    15    24    25   ar
    16    25    26   ar
    17    26    27   ar
    18    27    28   ar
    19     3     4   ar
    20     4     5   ar
    21     5     6    1
    22     6     7   ar
    23     7     8   ar
    24     8     9   ar
    25     9    10    1
    26     9    11   ar
    27    11    12   ar
    28     5     1   ar
    29    12     6   ar
    30    23    17   ar
    31    28    24   ar
@<TRIPOS>MOLECULE
*****
 28 31 0 0 0
SMALL
GASTEIGER

@<TRIPOS>ATOM
      1 N          63.6518   90.3872   12.8949 N.ar    1  UNL1       -0.3220
      2 C          64.4213   91.5368   12.3151 C.ar    1  UNL1        0.0740
      3 C          65.6265   91.7696   13.1771 C.ar    1  UNL1        0.0211
      4 C          65.6019   90.7639   14.2898 C.ar    1  UNL1        0.0165
      5 C          64.3814   89.9095   14.1154 C.ar    1  UNL1        0.0599
      6 C          63.9639   88.7764   15.0052 C.ar    1  UNL1        0.0159
      7 C          64.2857   87.3628   14.6204 C.ar    1  UNL1        0.0023
      8 C          63.8682   86.2297   15.5102 C.ar    1  UNL1        0.0114
      9 C          63.1289   86.5102   16.7848 C.ar    1  UNL1        0.0577
     10 CL         62.7114   85.3771   17.6745 Cl      1  UNL1       -0.0822
     11 C          62.8071   87.9238   17.1696 C.ar    1  UNL1        0.0114
     12 C          63.2246   89.0569   16.2798 C.ar    1  UNL1        0.0023
     13 C          62.3765   89.8155   12.3500 C.3     1  UNL1        0.1325
     14 C          62.4065   87.4474   11.2817 C.2     1  UNL1       -0.0029
     15 C          62.4070   88.9399   11.1325 C.2     1  UNL1       -0.0018
     16 C          66.6727   92.8232   12.9640 C.3     1  UNL1        0.1336
     17 C          66.6700   93.6390   11.7051 C.ar    1  UNL1        0.0026
     18 C          66.1309   95.0387   11.7197 C.ar    1  UNL1       -0.0013
     19 C          66.1283   95.8544   10.4609 C.ar    1  UNL1        0.0111
     20 C          66.6647   95.2705    9.1876 C.ar    1  UNL1        0.0577
     21 CL         66.6620   96.0863    7.9288 Cl      1  UNL1       -0.0822
     22 C          67.2037   93.8708    9.1731 C.ar    1  UNL1        0.0111
     23 C          67.2064   93.0551   10.4318 C.ar    1  UNL1       -0.0013
     24 N          67.7216   93.0610   14.0095 N.ar    1  UNL1       -0.3019
     25 C          67.5704   93.9183   15.2311 C.ar    1  UNL1        0.0985
     26 C          68.8612   93.8705   15.9937 C.ar    1  UNL1        0.1193
     27 N          69.8102   92.9835   15.2434 N.ar    1  UNL1       -0.2223
     28 C          69.1059   92.4833   14.0172 C.ar    1  UNL1        0.1791
@<TRIPOS>BOND
     1    14    15    2
     2    15    13    1
     3    13     1    1
     4     1     2   ar
     5     2     3   ar
     6     3    16    1
     7    16    17    1
     8    17    18   ar
     9    18    19   ar
    10    19    20   ar
    11    20    21    1
    12    20    22   ar
    13    22    23   ar
    14    16    24    1
    15    24    25   ar
    16    25    26   ar
    17    26    27   ar
    18    27    28   ar
    19     3     4   ar
    20     4     5   ar
    21     5     6    1
    22     6     7   ar
    23     7     8   ar
    24     8     9   ar
    25     9    10    1
    26     9    11   ar
    27    11    12   ar
    28     5     1   ar
    29    12     6   ar
    30    23    17   ar
    31    28    24   ar
@<TRIPOS>MOLECULE
*****
 28 31 0 0 0
SMALL
GASTEIGER

@<TRIPOS>ATOM
      1 N          66.4069   92.2843   13.2494 N.ar    1  UNL1       -0.3220
      2 C          65.5692   91.1865   13.8352 C.ar    1  UNL1        0.0740
      3 C          64.4716   90.8717   12.8626 C.ar    1  UNL1        0.0211
      4 C          64.6308   91.7749   11.6757 C.ar    1  UNL1        0.0165
      5 C          65.8269   92.6479   11.9146 C.ar    1  UNL1        0.0599
      6 C          66.3509   93.6999   10.9826 C.ar    1  UNL1        0.0159
      7 C          67.2717   93.3177    9.8619 C.ar    1  UNL1        0.0023
      8 C          67.7957   94.3696    8.9298 C.ar    1  UNL1        0.0114
      9 C          67.3991   95.8038    9.1185 C.ar    1  UNL1        0.0577
     10 CL         67.9232   96.8558    8.1865 Cl      1  UNL1       -0.0822
     11 C          66.4783   96.1861   10.2393 C.ar    1  UNL1        0.0114
     12 C          65.9543   95.1342   11.1713 C.ar    1  UNL1        0.0023
     13 C          67.6128   92.9088   13.8863 C.3     1  UNL1        0.1325
     14 C          68.0936   92.3916   16.3867 C.2     1  UNL1       -0.0029
     15 C          67.5718   93.3182   15.3288 C.2     1  UNL1       -0.0018
     16 C          63.4024   89.8356   13.0450 C.3     1  UNL1        0.1336
     17 C          63.4014   88.9659   14.2673 C.ar    1  UNL1        0.0026
     18 C          62.8679   89.4966   15.5648 C.ar    1  UNL1       -0.0013
     19 C          62.8669   88.6269   16.7870 C.ar    1  UNL1        0.0111
     20 C          63.3994   87.2267   16.7116 C.ar    1  UNL1        0.0577
     21 CL         63.3984   86.3570   17.9338 Cl      1  UNL1       -0.0822
     22 C          63.9329   86.6960   15.4140 C.ar    1  UNL1        0.0111
     23 C          63.9339   87.5657   14.1918 C.ar    1  UNL1       -0.0013
     24 N          62.3342   89.6690   12.0052 N.ar    1  UNL1       -0.3019
     25 C          62.5317   89.1419   10.6148 C.ar    1  UNL1        0.0985
     26 C          61.2005   89.1475    9.9235 C.ar    1  UNL1        0.1193
     27 N          60.1802   89.6780   10.8866 N.ar    1  UNL1       -0.2223
     28 C          60.8809   90.0004   12.1732 C.ar    1  UNL1        0.1791
@<TRIPOS>BOND
     1    14    15    2
     2    15    13    1
     3    13     1    1
     4     1     2   ar
     5     2     3   ar
     6     3    16    1
     7    16    17    1
     8    17    18   ar
     9    18    19   ar
    10    19    20   ar
    11    20    21    1
    12    20    22   ar
    13    22    23   ar
    14    16    24    1
    15    24    25   ar
    16    25    26   ar
    17    26    27   ar
    18    27    28   ar
    19     3     4   ar
    20     4     5   ar
    21     5     6    1
    22     6     7   ar
    23     7     8   ar
    24     8     9   ar
    25     9    10    1
    26     9    11   ar
    27    11    12   ar
    28     5     1   ar
    29    12     6   ar
    30    23    17   ar
    31    28    24   ar
@<TRIPOS>MOLECULE
*****
 28 31 0 0 0
SMALL
GASTEIGER

@<TRIPOS>ATOM
      1 N          62.8265   84.9309    9.4680 N.ar    1  UNL1       -0.3220
      2 C          63.3478   84.1080   10.6087 C.ar    1  UNL1        0.0740
      3 C          62.6200   84.5255   11.8520 C.ar    1  UNL1        0.0211
      4 C          61.6488   85.6064   11.4798 C.ar    1  UNL1        0.0165
      5 C          61.7764   85.8569   10.0064 C.ar    1  UNL1        0.0599
      6 C          60.9917   86.8577    9.2110 C.ar    1  UNL1        0.0159
      7 C          59.9746   86.3907    8.2123 C.ar    1  UNL1        0.0023
      8 C          59.1900   87.3915    7.4170 C.ar    1  UNL1        0.0114
      9 C          59.4224   88.8593    7.6202 C.ar    1  UNL1        0.0577
     10 CL         58.6377   89.8601    6.8248 Cl      1  UNL1       -0.0822
     11 C          60.4394   89.3264    8.6189 C.ar    1  UNL1        0.0114
     12 C          61.2241   88.3256    9.4143 C.ar    1  UNL1        0.0023
     13 C          63.2762   84.8431    8.0397 C.3     1  UNL1        0.1325
     14 C          62.7138   84.5253    5.5232 C.2     1  UNL1       -0.0029
     15 C          62.2884   84.5089    6.9615 C.2     1  UNL1       -0.0018
     16 C          62.8270   83.9612   13.2263 C.3     1  UNL1        0.1336
     17 C          62.9197   84.8802   14.4083 C.ar    1  UNL1        0.0026
     18 C          62.0399   84.6571   15.6025 C.ar    1  UNL1       -0.0013
     19 C          62.1327   85.5761   16.7844 C.ar    1  UNL1        0.0111
     20 C          63.1052   86.7180   16.7721 C.ar    1  UNL1        0.0577
     21 CL         63.1979   87.6370   17.9541 Cl      1  UNL1       -0.0822
     22 C          63.9849   86.9411   15.5779 C.ar    1  UNL1        0.0111
     23 C          63.8922   86.0222   14.3960 C.ar    1  UNL1       -0.0013
     24 N          62.9413   82.4780   13.4187 N.ar    1  UNL1       -0.3019
     25 C          61.9623   81.4485   12.9374 C.ar    1  UNL1        0.0985
     26 C          62.4706   80.0981   13.3474 C.ar    1  UNL1        0.1193
     27 N          63.7638   80.2930   14.0821 N.ar    1  UNL1       -0.2223
     28 C          64.0546   81.7639   14.1262 C.ar    1  UNL1        0.1791
@<TRIPOS>BOND
     1    14    15    2
     2    15    13    1
     3    13     1    1
     4     1     2   ar
     5     2     3   ar
     6     3    16    1
     7    16    17    1
     8    17    18   ar
     9    18    19   ar
    10    19    20   ar
    11    20    21    1
    12    20    22   ar
    13    22    23   ar
    14    16    24    1
    15    24    25   ar
    16    25    26   ar
    17    26    27   ar
    18    27    28   ar
    19     3     4   ar
    20     4     5   ar
    21     5     6    1
    22     6     7   ar
    23     7     8   ar
    24     8     9   ar
    25     9    10    1
    26     9    11   ar
    27    11    12   ar
    28     5     1   ar
    29    12     6   ar
    30    23    17   ar
    31    28    24   ar
@<TRIPOS>MOLECULE
*****
 28 31 0 0 0
SMALL
GASTEIGER

@<TRIPOS>ATOM
      1 N          62.1578   87.0222   11.1576 N.ar    1  UNL1       -0.3220
      2 C          62.4235   88.4745   11.4226 C.ar    1  UNL1        0.0740
      3 C          63.2859   88.5721   12.6461 C.ar    1  UNL1        0.0211
      4 C          63.5531   87.1802   13.1371 C.ar    1  UNL1        0.0165
      5 C          62.8559   86.2222   12.2172 C.ar    1  UNL1        0.0599
      6 C          62.8566   84.7270   12.3360 C.ar    1  UNL1        0.0159
      7 C          62.4371   84.0765   13.6207 C.ar    1  UNL1        0.0023
      8 C          62.4378   82.5812   13.7395 C.ar    1  UNL1        0.0114
      9 C          62.8582   81.7364   12.5736 C.ar    1  UNL1        0.0577
     10 CL         62.8589   80.2412   12.6924 Cl      1  UNL1       -0.0822
     11 C          63.2778   82.3869   11.2887 C.ar    1  UNL1        0.0114
     12 C          63.2770   83.8822   11.1699 C.ar    1  UNL1        0.0023
     13 C          61.3378   86.4673   10.0307 C.3     1  UNL1        0.1325
     14 C          62.9478   85.4245    8.2783 C.2     1  UNL1       -0.0029
     15 C          61.8992   86.4342    8.6401 C.2     1  UNL1       -0.0018
     16 C          63.7921   89.8392   13.2691 C.3     1  UNL1        0.1336
     17 C          64.4507   90.8831   12.4166 C.ar    1  UNL1        0.0026
     18 C          63.8206   91.3003   11.1209 C.ar    1  UNL1       -0.0013
     19 C          64.4792   92.3442   10.2686 C.ar    1  UNL1        0.0111
     20 C          65.7680   92.9707   10.7118 C.ar    1  UNL1        0.0577
     21 CL         66.4266   94.0146    9.8593 Cl      1  UNL1       -0.0822
     22 C          66.3981   92.5535   12.0075 C.ar    1  UNL1        0.0111
     23 C          65.7395   91.5096   12.8598 C.ar    1  UNL1       -0.0013
     24 N          63.6398   90.0625   14.7445 N.ar    1  UNL1       -0.3019
     25 C          63.2597   89.0247   15.7587 C.ar    1  UNL1        0.0985
     26 C          63.2258   89.6836   17.1058 C.ar    1  UNL1        0.1193
     27 N          63.5850   91.1286   16.9242 N.ar    1  UNL1       -0.2223
     28 C          63.8409   91.3627   15.4649 C.ar    1  UNL1        0.1791
@<TRIPOS>BOND
     1    14    15    2
     2    15    13    1
     3    13     1    1
     4     1     2   ar
     5     2     3   ar
     6     3    16    1
     7    16    17    1
     8    17    18   ar
     9    18    19   ar
    10    19    20   ar
    11    20    21    1
    12    20    22   ar
    13    22    23   ar
    14    16    24    1
    15    24    25   ar
    16    25    26   ar
    17    26    27   ar
    18    27    28   ar
    19     3     4   ar
    20     4     5   ar
    21     5     6    1
    22     6     7   ar
    23     7     8   ar
    24     8     9   ar
    25     9    10    1
    26     9    11   ar
    27    11    12   ar
    28     5     1   ar
    29    12     6   ar
    30    23    17   ar
    31    28    24   ar
@<TRIPOS>MOLECULE
*****
 28 31 0 0 0
SMALL
GASTEIGER

@<TRIPOS>ATOM
      1 N          62.6240   85.8951    9.7142 N.ar    1  UNL1       -0.3220
      2 C          62.4190   87.3799    9.6555 C.ar    1  UNL1        0.0740
      3 C          62.2060   87.8741   11.0557 C.ar    1  UNL1        0.0211
      4 C          62.2794   86.6947   11.9797 C.ar    1  UNL1        0.0165
      5 C          62.5377   85.4716   11.1507 C.ar    1  UNL1        0.0599
      6 C          62.6841   84.0711   11.6673 C.ar    1  UNL1        0.0159
      7 C          62.4422   83.7778   13.1182 C.ar    1  UNL1        0.0023
      8 C          62.5885   82.3772   13.6349 C.ar    1  UNL1        0.0114
      9 C          62.9767   81.2699   12.7005 C.ar    1  UNL1        0.0577
     10 CL         63.1231   79.8693   13.2172 Cl      1  UNL1       -0.0822
     11 C          63.2186   81.5631   11.2495 C.ar    1  UNL1        0.0114
     12 C          63.0723   82.9637   10.7329 C.ar    1  UNL1        0.0023
     13 C          62.8718   84.9923    8.5422 C.3     1  UNL1        0.1325
     14 C          62.4159   84.3721    6.0607 C.2     1  UNL1       -0.0029
     15 C          62.0446   85.1330    7.2989 C.2     1  UNL1       -0.0018
     16 C          61.9624   89.2976   11.4606 C.3     1  UNL1        0.1336
     17 C          63.1221   90.2204   11.6927 C.ar    1  UNL1        0.0026
     18 C          63.8272   90.2205   13.0166 C.ar    1  UNL1       -0.0013
     19 C          64.9868   91.1432   13.2486 C.ar    1  UNL1        0.0111
     20 C          65.4414   92.0657   12.1566 C.ar    1  UNL1        0.0577
     21 CL         66.6011   92.9884   12.3886 Cl      1  UNL1       -0.0822
     22 C          64.7363   92.0656   10.8327 C.ar    1  UNL1        0.0111
     23 C          63.5767   91.1429   10.6007 C.ar    1  UNL1       -0.0013
     24 N          60.5592   89.7986   11.6336 N.ar    1  UNL1       -0.3019
     25 C          59.4511   89.0868   12.3515 C.ar    1  UNL1        0.0985
     26 C          58.2247   89.9475   12.2807 C.ar    1  UNL1        0.1193
     27 N          58.5748   91.1914   11.5190 N.ar    1  UNL1       -0.2223
     28 C          60.0176   91.0993   11.1191 C.ar    1  UNL1        0.1791
@<TRIPOS>BOND
     1    14    15    2
     2    15    13    1
     3    13     1    1
     4     1     2   ar
     5     2     3   ar
     6     3    16    1
     7    16    17    1
     8    17    18   ar
     9    18    19   ar
    10    19    20   ar
    11    20    21    1
    12    20    22   ar
    13    22    23   ar
    14    16    24    1
    15    24    25   ar
    16    25    26   ar
    17    26    27   ar
    18    27    28   ar
    19     3     4   ar
    20     4     5   ar
    21     5     6    1
    22     6     7   ar
    23     7     8   ar
    24     8     9   ar
    25     9    10    1
    26     9    11   ar
    27    11    12   ar
    28     5     1   ar
    29    12     6   ar
    30    23    17   ar
    31    28    24   ar
@<TRIPOS>MOLECULE
*****
 28 31 0 0 0
SMALL
GASTEIGER

@<TRIPOS>ATOM
      1 N          61.8463   89.5975   11.2377 N.ar    1  UNL1       -0.3220
      2 C          62.3663   90.1235   12.5426 C.ar    1  UNL1        0.0740
      3 C          63.1684   89.0363   13.1940 C.ar    1  UNL1        0.0211
      4 C          63.1442   87.8383   12.2917 C.ar    1  UNL1        0.0165
      5 C          62.3271   88.1850   11.0826 C.ar    1  UNL1        0.0599
      6 C          62.0409   87.2786    9.9222 C.ar    1  UNL1        0.0159
      7 C          60.6964   87.3120    9.2582 C.ar    1  UNL1        0.0023
      8 C          60.4103   86.4056    8.0978 C.ar    1  UNL1        0.0114
      9 C          61.4687   85.4658    7.6014 C.ar    1  UNL1        0.0577
     10 CL         61.1826   84.5594    6.4410 Cl      1  UNL1       -0.0822
     11 C          62.8133   85.4324    8.2655 C.ar    1  UNL1        0.0114
     12 C          63.0994   86.3388    9.4258 C.ar    1  UNL1        0.0023
     13 C          60.9949   90.3514   10.2595 C.3     1  UNL1        0.1325
     14 C          58.9469   90.1747   11.8484 C.2     1  UNL1       -0.0029
     15 C          59.6077   90.7743   10.6426 C.2     1  UNL1       -0.0018
     16 C          63.8714   89.1306   14.5157 C.3     1  UNL1        0.1336
     17 C          64.7816   90.2884   14.8002 C.ar    1  UNL1        0.0026
     18 C          64.4760   91.2218   15.9340 C.ar    1  UNL1       -0.0013
     19 C          65.3862   92.3796   16.2184 C.ar    1  UNL1        0.0111
     20 C          66.6021   92.6040   15.3691 C.ar    1  UNL1        0.0577
     21 CL         67.5123   93.7619   15.6536 Cl      1  UNL1       -0.0822
     22 C          66.9077   91.6707   14.2354 C.ar    1  UNL1        0.0111
     23 C          65.9975   90.5129   13.9509 C.ar    1  UNL1       -0.0013
     24 N          63.6642   88.0670   15.5530 N.ar    1  UNL1       -0.3019
     25 C          62.9933   88.2503   16.8820 C.ar    1  UNL1        0.0985
     26 C          63.0059   86.9300   17.5938 C.ar    1  UNL1        0.1193
     27 N          63.6846   85.9306   16.7046 N.ar    1  UNL1       -0.2223
     28 C          64.0914   86.6333   15.4434 C.ar    1  UNL1        0.1791
@<TRIPOS>BOND
     1    14    15    2
     2    15    13    1
     3    13     1    1
     4     1     2   ar
     5     2     3   ar
     6     3    16    1
     7    16    17    1
     8    17    18   ar
     9    18    19   ar
    10    19    20   ar
    11    20    21    1
    12    20    22   ar
    13    22    23   ar
    14    16    24    1
    15    24    25   ar
    16    25    26   ar
    17    26    27   ar
    18    27    28   ar
    19     3     4   ar
    20     4     5   ar
    21     5     6    1
    22     6     7   ar
    23     7     8   ar
    24     8     9   ar
    25     9    10    1
    26     9    11   ar
    27    11    12   ar
    28     5     1   ar
    29    12     6   ar
    30    23    17   ar
    31    28    24   ar
@<TRIPOS>MOLECULE
*****
 28 31 0 0 0
SMALL
GASTEIGER

@<TRIPOS>ATOM
      1 N          62.5860   88.2449   11.3605 N.ar    1  UNL1       -0.3220
      2 C          63.1436   87.3059   12.3888 C.ar    1  UNL1        0.0740
      3 C          62.5389   85.9529   12.1573 C.ar    1  UNL1        0.0211
      4 C          61.6075   86.0557   10.9859 C.ar    1  UNL1        0.0165
      5 C          61.6366   87.4722   10.4934 C.ar    1  UNL1        0.0599
      6 C          60.8539   88.0198    9.3370 C.ar    1  UNL1        0.0159
      7 C          60.7612   89.5024    9.1290 C.ar    1  UNL1        0.0023
      8 C          59.9784   90.0500    7.9726 C.ar    1  UNL1        0.0114
      9 C          59.2884   89.1151    7.0242 C.ar    1  UNL1        0.0577
     10 CL         58.5056   89.6628    5.8677 Cl      1  UNL1       -0.0822
     11 C          59.3810   87.6325    7.2321 C.ar    1  UNL1        0.0114
     12 C          60.1638   87.0849    8.3885 C.ar    1  UNL1        0.0023
     13 C          62.9192   89.7010   11.2232 C.3     1  UNL1        0.1325
     14 C          64.4090   91.4451   12.4436 C.2     1  UNL1       -0.0029
     15 C          63.2302   90.5174   12.4426 C.2     1  UNL1       -0.0018
     16 C          62.8167   84.7146   12.9568 C.3     1  UNL1        0.1336
     17 C          62.9074   83.3836   12.2710 C.ar    1  UNL1        0.0026
     18 C          62.3409   82.1606   12.9291 C.ar    1  UNL1       -0.0013
     19 C          62.4316   80.8297   12.2432 C.ar    1  UNL1        0.0111
     20 C          63.0889   80.7218   10.8992 C.ar    1  UNL1        0.0577
     21 CL         63.1796   79.3908   10.2133 Cl      1  UNL1       -0.0822
     22 C          63.6554   81.9449   10.2411 C.ar    1  UNL1        0.0111
     23 C          63.5646   83.2757   10.9269 C.ar    1  UNL1       -0.0013
     24 N          63.0039   84.8071   14.4422 N.ar    1  UNL1       -0.3019
     25 C          64.2499   85.2537   15.1478 C.ar    1  UNL1        0.0985
     26 C          63.9940   85.1919   16.6245 C.ar    1  UNL1        0.1193
     27 N          62.5897   84.7071   16.8316 N.ar    1  UNL1       -0.2223
     28 C          61.9778   84.4693   15.4829 C.ar    1  UNL1        0.1791
@<TRIPOS>BOND
     1    14    15    2
     2    15    13    1
     3    13     1    1
     4     1     2   ar
     5     2     3   ar
     6     3    16    1
     7    16    17    1
     8    17    18   ar
     9    18    19   ar
    10    19    20   ar
    11    20    21    1
    12    20    22   ar
    13    22    23   ar
    14    16    24    1
    15    24    25   ar
    16    25    26   ar
    17    26    27   ar
    18    27    28   ar
    19     3     4   ar
    20     4     5   ar
    21     5     6    1
    22     6     7   ar
    23     7     8   ar
    24     8     9   ar
    25     9    10    1
    26     9    11   ar
    27    11    12   ar
    28     5     1   ar
    29    12     6   ar
    30    23    17   ar
    31    28    24   ar
