@<TRIPOS>MOLECULE
*****
 49 54 0 0 0
SMALL
GASTEIGER

@<TRIPOS>ATOM
      1 C          59.8285   89.9274    6.4436 C.2     1  UNL1        0.0332
      2 C          58.3469   90.1334    6.3323 C.2     1  UNL1        0.0101
      3 C          57.7904   91.0064    5.2468 C.2     1  UNL1        0.0255
      4 C          56.3088   91.2123    5.1355 C.3     1  UNL1        0.0351
      5 C          58.7157   91.6734    4.2726 C.2     1  UNL1        0.2278
      6 N          58.4603   92.5826    3.1072 N.2     1  UNL1       -0.0345
      7 C          59.7841   92.9386    2.4983 C.2     1  UNL1        0.3649
      8 N          60.8576   92.2494    3.2874 N.2     1  UNL1       -0.0380
      9 C          60.1973   91.4674    4.3839 C.2     1  UNL1        0.2184
     10 C          60.7537   90.5944    5.4694 C.3     1  UNL1        0.1186
     11 C          59.9971   93.8277    1.3092 C.3     1  UNL1        0.2250
     12 C          61.2124   94.7038    1.2358 C.2     1  UNL1        0.0436
     13 C          61.4252   95.5929    0.0466 C.2     1  UNL1        0.0288
     14 C          60.4229   95.6059   -1.0693 C.2     1  UNL1        0.0896
     15 N          59.2076   94.7298   -0.9959 N.am    1  UNL1       -0.1770
     16 C          58.9947   93.8407    0.1933 C.2     1  UNL1        0.2627
     17 O          57.7794   92.9645    0.2667 O.2     1  UNL1       -0.2719
     18 N          62.2148   94.6909    2.3516 N.pl3   1  UNL1       -0.3329
     19 H          61.9139   94.5793    3.2823 H       1  UNL1        0.1466
     20 C          63.6756   94.8481    2.0494 C.3     1  UNL1        0.1211
     21 C          64.3394   93.9357    1.0611 C.3     1  UNL1        0.1522
     22 O          64.9290   92.6349    1.5197 O.3     1  UNL1       -0.3783
     23 H          64.7962   92.5390    2.4758 H       1  UNL1        0.2109
     24 C          64.4137   94.3240   -0.3859 C.ar    1  UNL1        0.0067
     25 C          65.0583   95.6189   -0.7828 C.ar    1  UNL1       -0.0018
     26 C          65.1326   96.0073   -2.2297 C.ar    1  UNL1        0.0006
     27 C          64.5622   95.1007   -3.2798 C.ar    1  UNL1        0.0114
     28 C          63.9175   93.8058   -2.8829 C.ar    1  UNL1        0.0574
     29 CL         63.3471   92.8991   -3.9330 Cl      1  UNL1       -0.0823
     30 C          63.8433   93.4174   -1.4360 C.ar    1  UNL1        0.0095
     31 C          61.4979   87.3086    9.7002 C.3     1  UNL1        0.0610
     32 C          60.8390   86.6892    8.5035 C.3     1  UNL1        0.0374
     33 C          60.2826   87.5622    7.4179 C.3     1  UNL1        0.0919
     34 N          60.3849   89.0544    7.5292 N.pl3   1  UNL1       -0.3103
     35 C          61.0438   89.6739    8.7259 C.3     1  UNL1        0.0919
     36 C          61.6003   88.8010    9.8114 C.3     1  UNL1        0.0374
     37 C          63.7238   83.8170   14.0423 C.2     1  UNL1        0.4050
     38 O          63.5148   82.3325   13.9921 O.2     1  UNL1       -0.2262
     39 N          63.1673   84.6900   12.9568 N.am    1  UNL1       -0.2432
     40 C          63.3763   86.1744   13.0070 C.3     1  UNL1        0.1141
     41 C          62.8198   87.0474   11.9215 C.3     1  UNL1        0.0940
     42 N          62.0544   86.4358   10.7857 N.3     1  UNL1       -0.2710
     43 C          61.8454   84.9512   10.7355 C.3     1  UNL1        0.0940
     44 C          62.4018   84.0783   11.8210 C.3     1  UNL1        0.1141
     45 O          64.4893   84.4286   15.1780 O.3     1  UNL1       -0.4318
     46 C          63.8133   85.3973   16.1025 C.3     1  UNL1        0.2420
     47 C          62.3590   85.2310   16.4302 C.3     1  UNL1        0.1896
     48 C          62.5536   87.0185   18.3056 C.3     1  UNL1        0.1743
     49 O          61.7096   86.1322   17.4383 O.3     1  UNL1       -0.3471
@<TRIPOS>BOND
     1    48    49    1
     2    49    47    1
     3    47    46    1
     4    46    45    1
     5    45    37    1
     6    37    38    2
     7    37    39   am
     8    39    40    1
     9    40    41    1
    10    41    42    1
    11    42    31    1
    12    31    32    1
    13    32    33    1
    14    33    34    1
    15    34     1    1
    16     1     2    2
    17     2     3    1
    18     3     4    1
    19     3     5    2
    20     5     6    1
    21     6     7    2
    22     7    11    1
    23    11    12    1
    24    12    18    1
    25    18    20    1
    26    20    21    1
    27    21    22    1
    28    21    24    1
    29    24    25   ar
    30    25    26   ar
    31    26    27   ar
    32    27    28   ar
    33    28    29    1
    34    28    30   ar
    35    12    13    2
    36    13    14    1
    37    14    15    2
    38    15    16    1
    39    16    17    2
    40     7     8    1
    41     8     9    2
    42     9    10    1
    43    34    35    1
    44    35    36    1
    45    42    43    1
    46    43    44    1
    47    44    39    1
    48    36    31    1
    49    10     1    1
    50     9     5    1
    51    16    11    1
    52    30    24   ar
    53    18    19    1
    54    22    23    1
@<TRIPOS>MOLECULE
*****
 49 54 0 0 0
SMALL
GASTEIGER

@<TRIPOS>ATOM
      1 C          59.7749   90.1553    6.3265 C.2     1  UNL1        0.0332
      2 C          58.2922   90.3377    6.1922 C.2     1  UNL1        0.0101
      3 C          57.7361   91.1537    5.0630 C.2     1  UNL1        0.0255
      4 C          56.2532   91.3361    4.9287 C.3     1  UNL1        0.0351
      5 C          58.6629   91.7872    4.0682 C.2     1  UNL1        0.2278
      6 N          58.4082   92.6395    2.8604 N.2     1  UNL1       -0.0345
      7 C          59.7336   92.9838    2.2483 C.2     1  UNL1        0.3649
      8 N          60.8074   92.3443    3.0777 N.2     1  UNL1       -0.0380
      9 C          60.1456   91.6048    4.2025 C.2     1  UNL1        0.2184
     10 C          60.7017   90.7888    5.3317 C.3     1  UNL1        0.1186
     11 C          59.9477   93.8207    1.0220 C.3     1  UNL1        0.2250
     12 C          59.2997   93.4320   -0.2738 C.2     1  UNL1        0.0436
     13 C          59.5138   94.2690   -1.5001 C.2     1  UNL1        0.0288
     14 C          60.3759   95.4945   -1.4306 C.2     1  UNL1        0.0896
     15 N          61.0239   95.8831   -0.1349 N.am    1  UNL1       -0.1770
     16 C          60.8098   95.0462    1.0914 C.2     1  UNL1        0.2627
     17 O          61.4578   95.4348    2.3871 O.2     1  UNL1       -0.2719
     18 N          58.4375   92.2065   -0.3433 N.pl3   1  UNL1       -0.3329
     19 H          58.8117   91.3274   -0.1060 H       1  UNL1        0.1466
     20 C          57.0054   92.3205   -0.7744 C.3     1  UNL1        0.1211
     21 C          56.6180   91.9880   -2.1849 C.3     1  UNL1        0.1522
     22 O          56.1383   90.6082   -2.5255 O.3     1  UNL1       -0.3783
     23 H          56.1387   90.0591   -1.7258 H       1  UNL1        0.2109
     24 C          56.7104   93.0353   -3.2547 C.ar    1  UNL1        0.0067
     25 C          55.9623   94.3269   -3.1065 C.ar    1  UNL1       -0.0018
     26 C          56.0547   95.3743   -4.1763 C.ar    1  UNL1        0.0006
     27 C          56.8951   95.1299   -5.3945 C.ar    1  UNL1        0.0114
     28 C          57.6431   93.8383   -5.5428 C.ar    1  UNL1        0.0574
     29 CL         58.4836   93.5940   -6.7610 Cl      1  UNL1       -0.0823
     30 C          57.5508   92.7910   -4.4729 C.ar    1  UNL1        0.0095
     31 C          61.4432   87.7075    9.7140 C.3     1  UNL1        0.0610
     32 C          60.7181   87.0329    8.5874 C.3     1  UNL1        0.0374
     33 C          60.1620   87.8489    7.4582 C.3     1  UNL1        0.0919
     34 N          60.3310   89.3393    7.4557 N.pl3   1  UNL1       -0.3103
     35 C          61.0560   90.0139    8.5823 C.3     1  UNL1        0.0919
     36 C          61.6121   89.1979    9.7115 C.3     1  UNL1        0.0374
     37 C          63.6676   84.4439   14.2308 C.2     1  UNL1        0.4050
     38 O          64.4164   85.1154   15.3435 O.2     1  UNL1       -0.2262
     39 N          63.1114   85.2598   13.1016 N.am    1  UNL1       -0.2432
     40 C          62.3627   84.5882   11.9889 C.3     1  UNL1        0.1141
     41 C          61.8065   85.4041   10.8596 C.3     1  UNL1        0.0940
     42 N          61.9993   86.8916   10.8432 N.3     1  UNL1       -0.2710
     43 C          62.7481   87.5631   11.9560 C.3     1  UNL1        0.0940
     44 C          63.3042   86.7472   13.0852 C.3     1  UNL1        0.1141
     45 O          63.4748   82.9564   14.2472 O.3     1  UNL1       -0.4318
     46 C          62.1522   82.3760   14.6519 C.3     1  UNL1        0.2420
     47 C          61.6402   81.1364   13.9802 C.3     1  UNL1        0.1896
     48 C          62.8840   80.8700   11.7148 C.3     1  UNL1        0.1743
     49 O          62.5407   80.3460   13.0777 O.3     1  UNL1       -0.3471
@<TRIPOS>BOND
     1    48    49    1
     2    49    47    1
     3    47    46    1
     4    46    45    1
     5    45    37    1
     6    37    38    2
     7    37    39   am
     8    39    40    1
     9    40    41    1
    10    41    42    1
    11    42    31    1
    12    31    32    1
    13    32    33    1
    14    33    34    1
    15    34     1    1
    16     1     2    2
    17     2     3    1
    18     3     4    1
    19     3     5    2
    20     5     6    1
    21     6     7    2
    22     7    11    1
    23    11    12    1
    24    12    18    1
    25    18    20    1
    26    20    21    1
    27    21    22    1
    28    21    24    1
    29    24    25   ar
    30    25    26   ar
    31    26    27   ar
    32    27    28   ar
    33    28    29    1
    34    28    30   ar
    35    12    13    2
    36    13    14    1
    37    14    15    2
    38    15    16    1
    39    16    17    2
    40     7     8    1
    41     8     9    2
    42     9    10    1
    43    34    35    1
    44    35    36    1
    45    42    43    1
    46    43    44    1
    47    44    39    1
    48    36    31    1
    49    10     1    1
    50     9     5    1
    51    16    11    1
    52    30    24   ar
    53    18    19    1
    54    22    23    1
@<TRIPOS>MOLECULE
*****
 49 54 0 0 0
SMALL
GASTEIGER

@<TRIPOS>ATOM
      1 C          60.2119   89.9529    6.8087 C.2     1  UNL1        0.0332
      2 C          59.3476   88.7586    7.0854 C.2     1  UNL1        0.0101
      3 C          59.5581   87.9535    8.3335 C.2     1  UNL1        0.0255
      4 C          58.6937   86.7592    8.6103 C.3     1  UNL1        0.0351
      5 C          60.6328   88.3428    9.3048 C.2     1  UNL1        0.2278
      6 N          61.0714   87.7455   10.6089 N.2     1  UNL1       -0.0345
      7 C          62.2068   88.5706   11.1381 C.2     1  UNL1        0.3649
      8 N          62.4699   89.6780   10.1610 N.2     1  UNL1       -0.0380
      9 C          61.4971   89.5372    9.0279 C.2     1  UNL1        0.2184
     10 C          61.2866   90.3422    7.7799 C.3     1  UNL1        0.1186
     11 C          62.9488   88.3306   12.4194 C.3     1  UNL1        0.2250
     12 C          63.4779   89.4914   13.2085 C.2     1  UNL1        0.0436
     13 C          64.2199   89.2513   14.4898 C.2     1  UNL1        0.0288
     14 C          64.4329   87.8505   14.9821 C.2     1  UNL1        0.0896
     15 N          63.9039   86.6897   14.1930 N.am    1  UNL1       -0.1770
     16 C          63.1619   86.9298   12.9117 C.2     1  UNL1        0.2627
     17 O          62.6328   85.7690   12.1226 O.2     1  UNL1       -0.2719
     18 N          63.2649   90.8923   12.7163 N.pl3   1  UNL1       -0.3329
     19 H          62.4879   91.4106   13.0276 H       1  UNL1        0.1466
     20 C          64.2357   91.5034   11.7498 C.3     1  UNL1        0.1211
     21 C          65.2692   92.4747   12.2382 C.3     1  UNL1        0.1522
     22 O          65.4314   92.7209   13.7089 O.3     1  UNL1       -0.3783
     23 H          64.7958   92.1770   14.1999 H       1  UNL1        0.2109
     24 C          66.1406   93.1996   11.2558 C.ar    1  UNL1        0.0067
     25 C          66.0783   94.6951   11.1589 C.ar    1  UNL1       -0.0018
     26 C          66.9497   95.4201   10.1765 C.ar    1  UNL1        0.0006
     27 C          67.8835   94.6495    9.2910 C.ar    1  UNL1        0.0114
     28 C          67.9458   93.1539    9.3879 C.ar    1  UNL1        0.0574
     29 CL         68.8796   92.3833    8.5023 Cl      1  UNL1       -0.0823
     30 C          67.0744   92.4290   10.3703 C.ar    1  UNL1        0.0095
     31 C          59.5804   92.3681    3.0646 C.3     1  UNL1        0.0610
     32 C          60.9594   91.9120    3.4391 C.3     1  UNL1        0.0374
     33 C          61.1698   91.1069    4.6872 C.3     1  UNL1        0.0919
     34 N          60.0014   90.7580    5.5606 N.pl3   1  UNL1       -0.3103
     35 C          58.6224   91.2141    5.1860 C.3     1  UNL1        0.0919
     36 C          58.4119   92.0191    3.9380 C.3     1  UNL1        0.0374
     37 C          58.7384   95.5884   -1.9275 C.2     1  UNL1        0.4050
     38 O          59.5118   96.8555   -2.1419 O.2     1  UNL1       -0.2262
     39 N          58.9489   94.7832   -0.6795 N.am    1  UNL1       -0.2432
     40 C          58.1755   93.5161   -0.4651 C.3     1  UNL1        0.1141
     41 C          58.3860   92.7109    0.7830 C.3     1  UNL1        0.0940
     42 N          59.3699   93.1731    1.8165 N.3     1  UNL1       -0.2710
     43 C          60.1433   94.4404    1.6021 C.3     1  UNL1        0.0940
     44 C          59.9328   95.2454    0.3541 C.3     1  UNL1        0.1141
     45 O          57.7545   95.1262   -2.9611 O.3     1  UNL1       -0.4318
     46 C          56.9153   96.1273   -3.6983 C.3     1  UNL1        0.2420
     47 C          55.4309   96.1629   -3.4862 C.3     1  UNL1        0.1896
     48 C          53.8386   95.7704   -1.4710 C.3     1  UNL1        0.1743
     49 O          54.8723   96.6059   -2.1663 O.3     1  UNL1       -0.3471
@<TRIPOS>BOND
     1    48    49    1
     2    49    47    1
     3    47    46    1
     4    46    45    1
     5    45    37    1
     6    37    38    2
     7    37    39   am
     8    39    40    1
     9    40    41    1
    10    41    42    1
    11    42    31    1
    12    31    32    1
    13    32    33    1
    14    33    34    1
    15    34     1    1
    16     1     2    2
    17     2     3    1
    18     3     4    1
    19     3     5    2
    20     5     6    1
    21     6     7    2
    22     7    11    1
    23    11    12    1
    24    12    18    1
    25    18    20    1
    26    20    21    1
    27    21    22    1
    28    21    24    1
    29    24    25   ar
    30    25    26   ar
    31    26    27   ar
    32    27    28   ar
    33    28    29    1
    34    28    30   ar
    35    12    13    2
    36    13    14    1
    37    14    15    2
    38    15    16    1
    39    16    17    2
    40     7     8    1
    41     8     9    2
    42     9    10    1
    43    34    35    1
    44    35    36    1
    45    42    43    1
    46    43    44    1
    47    44    39    1
    48    36    31    1
    49    10     1    1
    50     9     5    1
    51    16    11    1
    52    30    24   ar
    53    18    19    1
    54    22    23    1
@<TRIPOS>MOLECULE
*****
 49 54 0 0 0
SMALL
GASTEIGER

@<TRIPOS>ATOM
      1 C          60.2402   89.9804    6.8017 C.2     1  UNL1        0.0332
      2 C          59.3935   88.7718    7.0699 C.2     1  UNL1        0.0101
      3 C          59.6038   87.9712    8.3209 C.2     1  UNL1        0.0255
      4 C          58.7570   86.7625    8.5891 C.3     1  UNL1        0.0351
      5 C          60.6610   88.3794    9.3036 C.2     1  UNL1        0.2278
      6 N          61.0954   87.7905   10.6130 N.2     1  UNL1       -0.0345
      7 C          62.2106   88.6352   11.1539 C.2     1  UNL1        0.3649
      8 N          62.4656   89.7462   10.1789 N.2     1  UNL1       -0.0380
      9 C          61.5079   89.5881    9.0353 C.2     1  UNL1        0.2184
     10 C          61.2975   90.3886    7.7843 C.3     1  UNL1        0.1186
     11 C          62.9425   88.4087   12.4435 C.3     1  UNL1        0.2250
     12 C          63.4181   89.5795   13.2516 C.2     1  UNL1        0.0436
     13 C          64.1499   89.3529   14.5412 C.2     1  UNL1        0.0288
     14 C          64.4062   87.9557   15.0228 C.2     1  UNL1        0.0896
     15 N          63.9307   86.7849   14.2147 N.am    1  UNL1       -0.1770
     16 C          63.1988   87.0114   12.9250 C.2     1  UNL1        0.2627
     17 O          62.7232   85.8406   12.1169 O.2     1  UNL1       -0.2719
     18 N          63.1618   90.9768   12.7702 N.pl3   1  UNL1       -0.3329
     19 H          62.3796   91.4754   13.1000 H       1  UNL1        0.1466
     20 C          64.0974   91.6146   11.7863 C.3     1  UNL1        0.1211
     21 C          65.2386   92.4569   12.2741 C.3     1  UNL1        0.1522
     22 O          65.4877   92.6026   13.7461 O.3     1  UNL1       -0.3783
     23 H          64.8256   92.0923   14.2381 H       1  UNL1        0.2109
     24 C          66.1309   93.1535   11.2899 C.ar    1  UNL1        0.0067
     25 C          66.0277   94.6383   11.1042 C.ar    1  UNL1       -0.0018
     26 C          66.9199   95.3349   10.1200 C.ar    1  UNL1        0.0006
     27 C          67.9154   94.5467    9.3214 C.ar    1  UNL1        0.0114
     28 C          68.0186   93.0618    9.5072 C.ar    1  UNL1        0.0574
     29 CL         69.0141   92.2736    8.7086 Cl      1  UNL1       -0.0823
     30 C          67.1264   92.3652   10.4914 C.ar    1  UNL1        0.0095
     31 C          59.6091   92.3820    3.0488 C.3     1  UNL1        0.0610
     32 C          60.9846   91.9076    3.4131 C.3     1  UNL1        0.0374
     33 C          61.1950   91.1071    4.6641 C.3     1  UNL1        0.0919
     34 N          60.0299   90.7810    5.5506 N.pl3   1  UNL1       -0.3103
     35 C          58.6543   91.2554    5.1863 C.3     1  UNL1        0.0919
     36 C          58.4439   92.0559    3.9354 C.3     1  UNL1        0.0374
     37 C          58.7673   95.5842   -1.9551 C.2     1  UNL1        0.4050
     38 O          57.7870   95.1158   -2.9891 O.2     1  UNL1       -0.2262
     39 N          58.9778   94.7836   -0.7040 N.am    1  UNL1       -0.2432
     40 C          59.9582   95.2520    0.3300 C.3     1  UNL1        0.1141
     41 C          60.1686   94.4515    1.5811 C.3     1  UNL1        0.0940
     42 N          59.3986   93.1826    1.7978 N.3     1  UNL1       -0.2710
     43 C          58.4182   92.7142    0.7637 C.3     1  UNL1        0.0940
     44 C          58.2078   93.5148   -0.4873 C.3     1  UNL1        0.1141
     45 O          59.5373   96.8531   -2.1718 O.3     1  UNL1       -0.4318
     46 C          60.8439   96.8210   -2.9079 C.3     1  UNL1        0.2420
     47 C          61.3091   95.5504   -3.5552 C.3     1  UNL1        0.1896
     48 C          63.2807   95.0448   -1.9406 C.3     1  UNL1        0.1743
     49 O          62.7087   95.0612   -3.3271 O.3     1  UNL1       -0.3471
@<TRIPOS>BOND
     1    48    49    1
     2    49    47    1
     3    47    46    1
     4    46    45    1
     5    45    37    1
     6    37    38    2
     7    37    39   am
     8    39    40    1
     9    40    41    1
    10    41    42    1
    11    42    31    1
    12    31    32    1
    13    32    33    1
    14    33    34    1
    15    34     1    1
    16     1     2    2
    17     2     3    1
    18     3     4    1
    19     3     5    2
    20     5     6    1
    21     6     7    2
    22     7    11    1
    23    11    12    1
    24    12    18    1
    25    18    20    1
    26    20    21    1
    27    21    22    1
    28    21    24    1
    29    24    25   ar
    30    25    26   ar
    31    26    27   ar
    32    27    28   ar
    33    28    29    1
    34    28    30   ar
    35    12    13    2
    36    13    14    1
    37    14    15    2
    38    15    16    1
    39    16    17    2
    40     7     8    1
    41     8     9    2
    42     9    10    1
    43    34    35    1
    44    35    36    1
    45    42    43    1
    46    43    44    1
    47    44    39    1
    48    36    31    1
    49    10     1    1
    50     9     5    1
    51    16    11    1
    52    30    24   ar
    53    18    19    1
    54    22    23    1
@<TRIPOS>MOLECULE
*****
 49 54 0 0 0
SMALL
GASTEIGER

@<TRIPOS>ATOM
      1 C          60.3273   90.1542    6.8983 C.2     1  UNL1        0.0332
      2 C          59.5542   88.9019    7.1875 C.2     1  UNL1        0.0101
      3 C          59.8030   88.1432    8.4575 C.2     1  UNL1        0.0255
      4 C          59.0298   86.8908    8.7467 C.3     1  UNL1        0.0351
      5 C          60.8251   88.6371    9.4380 C.2     1  UNL1        0.2278
      6 N          61.2840   88.1047   10.7632 N.2     1  UNL1       -0.0345
      7 C          62.3407   89.0280   11.2928 C.2     1  UNL1        0.3649
      8 N          62.5350   90.1311   10.2951 N.2     1  UNL1       -0.0380
      9 C          61.5982   89.8895    9.1487 C.2     1  UNL1        0.2184
     10 C          61.3494   90.6480    7.8788 C.3     1  UNL1        0.1186
     11 C          63.0745   88.8752   12.5921 C.3     1  UNL1        0.2250
     12 C          63.4003   87.5068   13.1131 C.2     1  UNL1        0.0436
     13 C          64.1341   87.3541   14.4124 C.2     1  UNL1        0.0288
     14 C          64.5421   88.5696   15.1908 C.2     1  UNL1        0.0896
     15 N          64.2163   89.9380   14.6699 N.am    1  UNL1       -0.1770
     16 C          63.4825   90.0908   13.3706 C.2     1  UNL1        0.2627
     17 O          63.1567   91.4591   12.8496 O.2     1  UNL1       -0.2719
     18 N          62.9924   86.2912   12.3347 N.pl3   1  UNL1       -0.3329
     19 H          62.3706   86.3781   11.5764 H       1  UNL1        0.1466
     20 C          63.5317   84.9433   12.7117 C.3     1  UNL1        0.1211
     21 C          62.7124   84.0188   13.5626 C.3     1  UNL1        0.1522
     22 O          61.9900   84.5493   14.7654 O.3     1  UNL1       -0.3783
     23 H          62.1567   85.5012   14.8490 H       1  UNL1        0.2109
     24 C          62.6156   82.5639   13.2108 C.ar    1  UNL1        0.0067
     25 C          62.2177   81.5644   14.2560 C.ar    1  UNL1       -0.0018
     26 C          62.1209   80.1094   13.9042 C.ar    1  UNL1        0.0006
     27 C          62.4220   79.6540   12.5071 C.ar    1  UNL1        0.0114
     28 C          62.8198   80.6536   11.4618 C.ar    1  UNL1        0.0574
     29 CL         63.1209   80.1981   10.0647 Cl      1  UNL1       -0.0823
     30 C          62.9167   82.1085   11.8137 C.ar    1  UNL1        0.0095
     31 C          59.5807   92.4300    3.0886 C.3     1  UNL1        0.0610
     32 C          60.9763   92.0219    3.4572 C.3     1  UNL1        0.0374
     33 C          61.2251   91.2632    4.7271 C.3     1  UNL1        0.0919
     34 N          60.0785   90.9128    5.6283 N.pl3   1  UNL1       -0.3103
     35 C          58.6830   91.3210    5.2598 C.3     1  UNL1        0.0919
     36 C          58.4341   92.0796    3.9899 C.3     1  UNL1        0.0374
     37 C          58.5852   95.4646   -1.9909 C.2     1  UNL1        0.4050
     38 O          59.1712   96.8331   -2.1740 O.2     1  UNL1       -0.2262
     39 N          58.8341   94.7059   -0.7210 N.am    1  UNL1       -0.2432
     40 C          58.2481   93.3374   -0.5378 C.3     1  UNL1        0.1141
     41 C          58.4969   92.5787    0.7321 C.3     1  UNL1        0.0940
     42 N          59.3318   93.1887    1.8188 N.3     1  UNL1       -0.2710
     43 C          59.9179   94.5572    1.6355 C.3     1  UNL1        0.0940
     44 C          59.6690   95.3158    0.3657 C.3     1  UNL1        0.1141
     45 O          57.7503   94.8546   -3.0775 O.3     1  UNL1       -0.4318
     46 C          58.3991   94.0248   -4.1455 C.3     1  UNL1        0.2420
     47 C          57.5625   93.1328   -5.0140 C.3     1  UNL1        0.1896
     48 C          56.1996   91.5010   -3.5208 C.3     1  UNL1        0.1743
     49 O          56.2428   92.6234   -4.5149 O.3     1  UNL1       -0.3471
@<TRIPOS>BOND
     1    48    49    1
     2    49    47    1
     3    47    46    1
     4    46    45    1
     5    45    37    1
     6    37    38    2
     7    37    39   am
     8    39    40    1
     9    40    41    1
    10    41    42    1
    11    42    31    1
    12    31    32    1
    13    32    33    1
    14    33    34    1
    15    34     1    1
    16     1     2    2
    17     2     3    1
    18     3     4    1
    19     3     5    2
    20     5     6    1
    21     6     7    2
    22     7    11    1
    23    11    12    1
    24    12    18    1
    25    18    20    1
    26    20    21    1
    27    21    22    1
    28    21    24    1
    29    24    25   ar
    30    25    26   ar
    31    26    27   ar
    32    27    28   ar
    33    28    29    1
    34    28    30   ar
    35    12    13    2
    36    13    14    1
    37    14    15    2
    38    15    16    1
    39    16    17    2
    40     7     8    1
    41     8     9    2
    42     9    10    1
    43    34    35    1
    44    35    36    1
    45    42    43    1
    46    43    44    1
    47    44    39    1
    48    36    31    1
    49    10     1    1
    50     9     5    1
    51    16    11    1
    52    30    24   ar
    53    18    19    1
    54    22    23    1
@<TRIPOS>MOLECULE
*****
 49 54 0 0 0
SMALL
GASTEIGER

@<TRIPOS>ATOM
      1 C          60.3355   90.1032    6.8826 C.2     1  UNL1        0.0332
      2 C          59.5573   88.8530    7.1677 C.2     1  UNL1        0.0101
      3 C          59.8021   88.0900    8.4359 C.2     1  UNL1        0.0255
      4 C          59.0238   86.8398    8.7210 C.3     1  UNL1        0.0351
      5 C          60.8250   88.5774    9.4187 C.2     1  UNL1        0.2278
      6 N          61.2806   88.0397   10.7429 N.2     1  UNL1       -0.0345
      7 C          62.3404   88.9576   11.2760 C.2     1  UNL1        0.3649
      8 N          62.5398   90.0626   10.2814 N.2     1  UNL1       -0.0380
      9 C          61.6032   89.8276    9.1335 C.2     1  UNL1        0.2184
     10 C          61.3584   90.5905    7.8654 C.3     1  UNL1        0.1186
     11 C          63.0723   88.7985   12.5756 C.3     1  UNL1        0.2250
     12 C          63.3864   87.4274   13.0965 C.2     1  UNL1        0.0436
     13 C          64.1184   87.2684   14.3961 C.2     1  UNL1        0.0288
     14 C          64.5362   88.4804   15.1749 C.2     1  UNL1        0.0896
     15 N          64.2220   89.8515   14.6540 N.am    1  UNL1       -0.1770
     16 C          63.4901   90.0105   13.3544 C.2     1  UNL1        0.2627
     17 O          63.1759   91.3816   12.8335 O.2     1  UNL1       -0.2719
     18 N          62.9687   86.2153   12.3178 N.pl3   1  UNL1       -0.3329
     19 H          62.3336   86.3049   11.5710 H       1  UNL1        0.1466
     20 C          63.5187   84.8668   12.6770 C.3     1  UNL1        0.1211
     21 C          62.7190   83.9363   13.5400 C.3     1  UNL1        0.1522
     22 O          62.0322   84.4564   14.7680 O.3     1  UNL1       -0.3783
     23 H          62.2053   85.4067   14.8573 H       1  UNL1        0.2109
     24 C          62.6062   82.4858   13.1751 C.ar    1  UNL1        0.0067
     25 C          62.1771   81.4842   14.2059 C.ar    1  UNL1       -0.0018
     26 C          62.0643   80.0337   13.8410 C.ar    1  UNL1        0.0006
     27 C          62.3806   79.5847   12.4452 C.ar    1  UNL1        0.0114
     28 C          62.8097   80.5862   11.4144 C.ar    1  UNL1        0.0574
     29 CL         63.1261   80.1372   10.0185 Cl      1  UNL1       -0.0823
     30 C          62.9226   82.0368   11.7793 C.ar    1  UNL1        0.0095
     31 C          59.6012   92.3920    3.0783 C.3     1  UNL1        0.0610
     32 C          60.9926   91.9629    3.4387 C.3     1  UNL1        0.0374
     33 C          61.2373   91.2000    4.7068 C.3     1  UNL1        0.0919
     34 N          60.0908   90.8661    5.6144 N.pl3   1  UNL1       -0.3103
     35 C          58.6994   91.2952    5.2540 C.3     1  UNL1        0.0919
     36 C          58.4546   92.0582    3.9860 C.3     1  UNL1        0.0374
     37 C          58.6221   95.4438   -1.9940 C.2     1  UNL1        0.4050
     38 O          57.7269   94.8715   -3.0527 O.2     1  UNL1       -0.2262
     39 N          58.8669   94.6809   -0.7258 N.am    1  UNL1       -0.2432
     40 C          59.7621   95.2532    0.3328 C.3     1  UNL1        0.1141
     41 C          60.0069   94.4903    1.6010 C.3     1  UNL1        0.0940
     42 N          59.3565   93.1550    1.8103 N.3     1  UNL1       -0.2710
     43 C          58.4612   92.5826    0.7515 C.3     1  UNL1        0.0940
     44 C          58.2164   93.3456   -0.5165 C.3     1  UNL1        0.1141
     45 O          59.2725   96.7791   -2.2033 O.3     1  UNL1       -0.4318
     46 C          60.7181   96.8558   -2.5964 C.3     1  UNL1        0.2420
     47 C          61.4369   95.6219   -3.0554 C.3     1  UNL1        0.1896
     48 C          63.4943   94.1007   -2.6045 C.3     1  UNL1        0.1743
     49 O          62.9055   95.4676   -2.7914 O.3     1  UNL1       -0.3471
@<TRIPOS>BOND
     1    48    49    1
     2    49    47    1
     3    47    46    1
     4    46    45    1
     5    45    37    1
     6    37    38    2
     7    37    39   am
     8    39    40    1
     9    40    41    1
    10    41    42    1
    11    42    31    1
    12    31    32    1
    13    32    33    1
    14    33    34    1
    15    34     1    1
    16     1     2    2
    17     2     3    1
    18     3     4    1
    19     3     5    2
    20     5     6    1
    21     6     7    2
    22     7    11    1
    23    11    12    1
    24    12    18    1
    25    18    20    1
    26    20    21    1
    27    21    22    1
    28    21    24    1
    29    24    25   ar
    30    25    26   ar
    31    26    27   ar
    32    27    28   ar
    33    28    29    1
    34    28    30   ar
    35    12    13    2
    36    13    14    1
    37    14    15    2
    38    15    16    1
    39    16    17    2
    40     7     8    1
    41     8     9    2
    42     9    10    1
    43    34    35    1
    44    35    36    1
    45    42    43    1
    46    43    44    1
    47    44    39    1
    48    36    31    1
    49    10     1    1
    50     9     5    1
    51    16    11    1
    52    30    24   ar
    53    18    19    1
    54    22    23    1
@<TRIPOS>MOLECULE
*****
 49 54 0 0 0
SMALL
GASTEIGER

@<TRIPOS>ATOM
      1 C          60.3890   89.2924    8.0002 C.2     1  UNL1        0.0332
      2 C          59.6473   89.6158    9.2631 C.2     1  UNL1        0.0101
      3 C          59.8683   88.7893   10.4953 C.2     1  UNL1        0.0255
      4 C          59.1265   89.1128   11.7584 C.3     1  UNL1        0.0351
      5 C          60.8309   87.6394   10.4643 C.2     1  UNL1        0.2278
      6 N          61.2516   86.6542   11.5142 N.2     1  UNL1       -0.0345
      7 C          62.2534   85.7218   10.9000 C.2     1  UNL1        0.3649
      8 N          62.4517   86.1308    9.4705 N.2     1  UNL1       -0.0380
      9 C          61.5726   87.3160    9.2013 C.2     1  UNL1        0.2184
     10 C          61.3516   88.1425    7.9692 C.3     1  UNL1        0.1186
     11 C          62.9367   84.5807   11.5935 C.3     1  UNL1        0.2250
     12 C          63.3293   84.7064   13.0357 C.2     1  UNL1        0.0436
     13 C          64.0127   83.5652   13.7291 C.2     1  UNL1        0.0288
     14 C          64.3035   82.2985   12.9804 C.2     1  UNL1        0.0896
     15 N          63.9110   82.1728   11.5381 N.am    1  UNL1       -0.1770
     16 C          63.2276   83.3139   10.8447 C.2     1  UNL1        0.2627
     17 O          62.8350   83.1883    9.4025 O.2     1  UNL1       -0.2719
     18 N          63.0385   85.9731   13.7846 N.pl3   1  UNL1       -0.3329
     19 H          62.1068   86.2388   13.9593 H       1  UNL1        0.1466
     20 C          64.1672   86.8351   14.2672 C.3     1  UNL1        0.1211
     21 C          63.8872   88.2100   14.7974 C.3     1  UNL1        0.1522
     22 O          63.3820   88.3848   16.1990 O.3     1  UNL1       -0.3783
     23 H          63.2925   87.5161   16.6211 H       1  UNL1        0.2109
     24 C          64.1123   89.4101   13.9262 C.ar    1  UNL1        0.0067
     25 C          65.0718   90.4798   14.3562 C.ar    1  UNL1       -0.0018
     26 C          65.2969   91.6799   13.4850 C.ar    1  UNL1        0.0006
     27 C          64.5625   91.8103   12.1836 C.ar    1  UNL1        0.0114
     28 C          63.6030   90.7406   11.7535 C.ar    1  UNL1        0.0574
     29 CL         62.8685   90.8710   10.4521 Cl      1  UNL1       -0.0823
     30 C          63.3779   89.5405   12.6248 C.ar    1  UNL1        0.0095
     31 C          59.7263   91.7718    4.3037 C.3     1  UNL1        0.0610
     32 C          58.5581   91.3588    5.1491 C.3     1  UNL1        0.0374
     33 C          58.7791   90.5324    6.3813 C.3     1  UNL1        0.0919
     34 N          60.1680   90.1189    6.7680 N.pl3   1  UNL1       -0.3103
     35 C          61.3362   90.5318    5.9225 C.3     1  UNL1        0.0919
     36 C          61.1154   91.3583    4.6904 C.3     1  UNL1        0.0374
     37 C          58.8428   95.0777   -0.6249 C.2     1  UNL1        0.4050
     38 O          59.5394   96.3972   -0.7777 O.2     1  UNL1       -0.2262
     39 N          59.0637   94.2511    0.6073 N.am    1  UNL1       -0.2432
     40 C          58.3671   92.9316    0.7600 C.3     1  UNL1        0.1141
     41 C          58.5880   92.1050    1.9922 C.3     1  UNL1        0.0940
     42 N          59.5054   92.5982    3.0715 N.3     1  UNL1       -0.2710
     43 C          60.2020   93.9178    2.9187 C.3     1  UNL1        0.0940
     44 C          59.9812   94.7443    1.6866 C.3     1  UNL1        0.1141
     45 O          57.9254   94.5845   -1.7043 O.3     1  UNL1       -0.4318
     46 C          56.5015   95.0540   -1.7508 C.3     1  UNL1        0.2420
     47 C          55.3879   94.0590   -1.8908 C.3     1  UNL1        0.1896
     48 C          55.9701   91.5994   -2.4918 C.3     1  UNL1        0.1743
     49 O          55.5981   92.6341   -1.4716 O.3     1  UNL1       -0.3471
@<TRIPOS>BOND
     1    48    49    1
     2    49    47    1
     3    47    46    1
     4    46    45    1
     5    45    37    1
     6    37    38    2
     7    37    39   am
     8    39    40    1
     9    40    41    1
    10    41    42    1
    11    42    31    1
    12    31    32    1
    13    32    33    1
    14    33    34    1
    15    34     1    1
    16     1     2    2
    17     2     3    1
    18     3     4    1
    19     3     5    2
    20     5     6    1
    21     6     7    2
    22     7    11    1
    23    11    12    1
    24    12    18    1
    25    18    20    1
    26    20    21    1
    27    21    22    1
    28    21    24    1
    29    24    25   ar
    30    25    26   ar
    31    26    27   ar
    32    27    28   ar
    33    28    29    1
    34    28    30   ar
    35    12    13    2
    36    13    14    1
    37    14    15    2
    38    15    16    1
    39    16    17    2
    40     7     8    1
    41     8     9    2
    42     9    10    1
    43    34    35    1
    44    35    36    1
    45    42    43    1
    46    43    44    1
    47    44    39    1
    48    36    31    1
    49    10     1    1
    50     9     5    1
    51    16    11    1
    52    30    24   ar
    53    18    19    1
    54    22    23    1
@<TRIPOS>MOLECULE
*****
 49 54 0 0 0
SMALL
GASTEIGER

@<TRIPOS>ATOM
      1 C          60.3991   89.3008    7.9505 C.2     1  UNL1        0.0332
      2 C          59.6311   89.5972    9.2043 C.2     1  UNL1        0.0101
      3 C          59.8409   88.7565   10.4288 C.2     1  UNL1        0.0255
      4 C          59.0728   89.0530   11.6827 C.3     1  UNL1        0.0351
      5 C          60.8187   87.6195   10.3993 C.2     1  UNL1        0.2278
      6 N          61.2335   86.6251   11.4430 N.2     1  UNL1       -0.0345
      7 C          62.2579   85.7142   10.8340 C.2     1  UNL1        0.3649
      8 N          62.4762   86.1455    9.4141 N.2     1  UNL1       -0.0380
      9 C          61.5868   87.3231    9.1454 C.2     1  UNL1        0.2184
     10 C          61.3769   88.1637    7.9210 C.3     1  UNL1        0.1186
     11 C          62.9436   84.5723   11.5239 C.3     1  UNL1        0.2250
     12 C          63.3372   84.6948   12.9662 C.2     1  UNL1        0.0436
     13 C          64.0229   83.5528   13.6560 C.2     1  UNL1        0.0288
     14 C          64.3150   82.2885   12.9037 C.2     1  UNL1        0.0896
     15 N          63.9214   82.1660   11.4614 N.am    1  UNL1       -0.1770
     16 C          63.2357   83.3079   10.7716 C.2     1  UNL1        0.2627
     17 O          62.8421   83.1854    9.3294 O.2     1  UNL1       -0.2719
     18 N          63.0451   85.9591   13.7186 N.pl3   1  UNL1       -0.3329
     19 H          62.1140   86.2536   13.8435 H       1  UNL1        0.1466
     20 C          64.1715   86.7747   14.2807 C.3     1  UNL1        0.1211
     21 C          63.9068   88.1507   14.8160 C.3     1  UNL1        0.1522
     22 O          63.4451   88.3286   16.2320 O.3     1  UNL1       -0.3783
     23 H          63.3695   87.4609   16.6589 H       1  UNL1        0.2109
     24 C          64.1038   89.3487   13.9352 C.ar    1  UNL1        0.0067
     25 C          65.0420   90.4415   14.3541 C.ar    1  UNL1       -0.0018
     26 C          65.2390   91.6396   13.4733 C.ar    1  UNL1        0.0006
     27 C          64.4977   91.7449   12.1735 C.ar    1  UNL1        0.0114
     28 C          63.5594   90.6521   11.7546 C.ar    1  UNL1        0.0574
     29 CL         62.8181   90.7575   10.4549 Cl      1  UNL1       -0.0823
     30 C          63.3625   89.4541   12.6354 C.ar    1  UNL1        0.0095
     31 C          59.7699   91.8228    4.2770 C.3     1  UNL1        0.0610
     32 C          58.5964   91.4188    5.1194 C.3     1  UNL1        0.0374
     33 C          58.8062   90.5781    6.3439 C.3     1  UNL1        0.0919
     34 N          60.1893   90.1415    6.7259 N.pl3   1  UNL1       -0.3103
     35 C          61.3628   90.5454    5.8836 C.3     1  UNL1        0.0919
     36 C          61.1531   91.3861    4.6591 C.3     1  UNL1        0.0374
     37 C          58.9311   95.1854   -0.6209 C.2     1  UNL1        0.4050
     38 O          59.5249   96.5607   -0.6971 O.2     1  UNL1       -0.2262
     39 N          59.1408   94.3447    0.6036 N.am    1  UNL1       -0.2432
     40 C          58.5470   92.9694    0.6798 C.3     1  UNL1        0.1141
     41 C          58.7567   92.1287    1.9043 C.3     1  UNL1        0.0940
     42 N          59.5602   92.6634    3.0525 N.3     1  UNL1       -0.2710
     43 C          60.1540   94.0388    2.9763 C.3     1  UNL1        0.0940
     44 C          59.9443   94.8794    1.7518 C.3     1  UNL1        0.1141
     45 O          58.1276   94.6507   -1.7691 O.3     1  UNL1       -0.4318
     46 C          58.8104   93.9157   -2.8843 C.3     1  UNL1        0.2420
     47 C          60.3024   93.9819   -3.0233 C.3     1  UNL1        0.1896
     48 C          62.2963   93.8914   -1.3600 C.3     1  UNL1        0.1743
     49 O          61.1782   93.2040   -2.0861 O.3     1  UNL1       -0.3471
@<TRIPOS>BOND
     1    48    49    1
     2    49    47    1
     3    47    46    1
     4    46    45    1
     5    45    37    1
     6    37    38    2
     7    37    39   am
     8    39    40    1
     9    40    41    1
    10    41    42    1
    11    42    31    1
    12    31    32    1
    13    32    33    1
    14    33    34    1
    15    34     1    1
    16     1     2    2
    17     2     3    1
    18     3     4    1
    19     3     5    2
    20     5     6    1
    21     6     7    2
    22     7    11    1
    23    11    12    1
    24    12    18    1
    25    18    20    1
    26    20    21    1
    27    21    22    1
    28    21    24    1
    29    24    25   ar
    30    25    26   ar
    31    26    27   ar
    32    27    28   ar
    33    28    29    1
    34    28    30   ar
    35    12    13    2
    36    13    14    1
    37    14    15    2
    38    15    16    1
    39    16    17    2
    40     7     8    1
    41     8     9    2
    42     9    10    1
    43    34    35    1
    44    35    36    1
    45    42    43    1
    46    43    44    1
    47    44    39    1
    48    36    31    1
    49    10     1    1
    50     9     5    1
    51    16    11    1
    52    30    24   ar
    53    18    19    1
    54    22    23    1
