@<TRIPOS>MOLECULE
*****
 33 36 0 0 0
SMALL
GASTEIGER

@<TRIPOS>ATOM
      1 N          62.1374   86.4416   11.7256 N.pl3   1  UNL1       -0.2872
      2 N          64.6780   89.7012   13.5062 N.pl3   1  UNL1       -0.3074
      3 C          63.8744   89.9685   12.2682 C.3     1  UNL1        0.0925
      4 C          63.0275   88.8819   11.6746 C.3     1  UNL1        0.0415
      5 C          62.9843   87.5282   12.3191 C.3     1  UNL1        0.0807
      6 C          63.7880   87.2609   13.5571 C.3     1  UNL1        0.0415
      7 C          64.6348   88.3475   14.1506 C.3     1  UNL1        0.0925
      8 C          67.2186   92.9609   15.2867 C.ar    1  UNL1        0.0715
      9 C          67.5973   92.3492   13.9705 C.ar    1  UNL1        0.0051
     10 C          66.7505   91.2627   13.3770 C.ar    1  UNL1        0.0145
     11 C          65.5249   90.7878   14.0997 C.ar    1  UNL1        0.0478
     12 C          65.1461   91.3994   15.4159 C.ar    1  UNL1        0.0145
     13 C          65.9930   92.4860   16.0094 C.ar    1  UNL1        0.0051
     14 F          68.9123   95.1339   16.4738 F       1  UNL1       -0.1659
     15 C          68.0654   94.0474   15.8802 C.3     1  UNL1        0.4186
     16 F          68.7044   93.0479   16.7983 F       1  UNL1       -0.1659
     17 F          67.4265   95.0469   14.9622 F       1  UNL1       -0.1659
     18 C          62.2716   85.0317   12.2197 C.ar    1  UNL1        0.0515
     19 C          62.6243   83.9319   11.2625 C.ar    1  UNL1        0.0148
     20 C          62.7585   82.5220   11.7566 C.ar    1  UNL1        0.0051
     21 C          62.5400   82.2119   13.2078 C.ar    1  UNL1        0.0715
     22 C          62.1874   83.3116   14.1650 C.ar    1  UNL1        0.0051
     23 C          62.0532   84.7216   13.6709 C.ar    1  UNL1        0.0148
     24 C          62.6743   80.8019   13.7019 C.3     1  UNL1        0.4186
     25 F          62.8084   79.3920   14.1959 F       1  UNL1       -0.1659
     26 F          64.1494   80.8483   13.4339 F       1  UNL1       -0.1659
     27 F          61.1992   80.7555   13.9699 F       1  UNL1       -0.1659
     28 C          61.1564   86.7650   10.6380 C.ar    1  UNL1        0.0710
     29 C          61.2086   86.0224    9.3358 C.ar    1  UNL1        0.0180
     30 C          60.2274   86.3458    8.2481 C.ar    1  UNL1        0.0220
     31 C          59.1942   87.4117    8.4628 C.ar    1  UNL1        0.0990
     32 N          59.1420   88.1543    9.7650 N.ar    1  UNL1       -0.2410
     33 C          60.1231   87.8310   10.8526 C.ar    1  UNL1        0.1136
@<TRIPOS>BOND
     1    14    15    1
     2    15    16    1
     3    15    17    1
     4    15     8    1
     5     8     9   ar
     6     9    10   ar
     7    10    11   ar
     8    11     2    1
     9     2     3    1
    10     3     4    1
    11     4     5    1
    12     5     1    1
    13     1    18    1
    14    18    19   ar
    15    19    20   ar
    16    20    21   ar
    17    21    24    1
    18    24    25    1
    19    24    26    1
    20    24    27    1
    21    21    22   ar
    22    22    23   ar
    23     1    28    1
    24    28    29   ar
    25    29    30   ar
    26    30    31   ar
    27    31    32   ar
    28    32    33   ar
    29     5     6    1
    30     6     7    1
    31    11    12   ar
    32    12    13   ar
    33    13     8   ar
    34     7     2    1
    35    23    18   ar
    36    33    28   ar
@<TRIPOS>MOLECULE
*****
 33 36 0 0 0
SMALL
GASTEIGER

@<TRIPOS>ATOM
      1 N          60.9795   94.2126   -2.4725 N.pl3   1  UNL1       -0.2872
      2 N          56.6167   95.1755   -3.0093 N.pl3   1  UNL1       -0.3074
      3 C          57.1964   93.9450   -3.6414 C.3     1  UNL1        0.0925
      4 C          58.6507   93.6240   -3.4624 C.3     1  UNL1        0.0415
      5 C          59.5252   94.5335   -2.6514 C.3     1  UNL1        0.0807
      6 C          58.9455   95.7641   -2.0194 C.3     1  UNL1        0.0415
      7 C          57.4912   96.0851   -2.1983 C.3     1  UNL1        0.0925
      8 C          52.2538   96.1385   -3.5460 C.ar    1  UNL1        0.0715
      9 C          52.7818   95.7831   -2.1878 C.ar    1  UNL1        0.0051
     10 C          54.2361   95.4621   -2.0089 C.ar    1  UNL1        0.0145
     11 C          55.1624   95.4965   -3.1882 C.ar    1  UNL1        0.0478
     12 C          54.6343   95.8519   -4.5464 C.ar    1  UNL1        0.0145
     13 C          53.1801   96.1729   -4.7253 C.ar    1  UNL1        0.0051
     14 F          49.3452   96.7805   -3.9038 F       1  UNL1       -0.1659
     15 C          50.7995   96.4595   -3.7249 C.3     1  UNL1        0.4186
     16 F          50.9020   96.1127   -5.1807 F       1  UNL1       -0.1659
     17 F          50.6970   96.8064   -2.2692 F       1  UNL1       -0.1659
     18 C          61.4648   93.6270   -1.1796 C.ar    1  UNL1        0.0515
     19 C          62.7849   94.0558   -0.6108 C.ar    1  UNL1        0.0148
     20 C          63.2702   93.4703    0.6821 C.ar    1  UNL1        0.0051
     21 C          62.4354   92.4560    1.4062 C.ar    1  UNL1        0.0715
     22 C          61.1154   92.0272    0.8374 C.ar    1  UNL1        0.0051
     23 C          60.6300   92.6127   -0.4555 C.ar    1  UNL1        0.0148
     24 C          62.9208   91.8704    2.6992 C.3     1  UNL1        0.4186
     25 F          63.4061   91.2849    3.9921 F       1  UNL1       -0.1659
     26 F          61.5540   92.0457    3.2917 F       1  UNL1       -0.1659
     27 F          64.2876   91.6952    2.1067 F       1  UNL1       -0.1659
     28 C          61.9485   94.4771   -3.5865 C.ar    1  UNL1        0.0710
     29 C          62.7863   93.3593   -4.1331 C.ar    1  UNL1        0.0180
     30 C          63.7554   93.6239   -5.2471 C.ar    1  UNL1        0.0220
     31 C          63.8866   95.0062   -5.8145 C.ar    1  UNL1        0.0990
     32 N          63.0488   96.1240   -5.2679 N.ar    1  UNL1       -0.2410
     33 C          62.0798   95.8594   -4.1540 C.ar    1  UNL1        0.1136
@<TRIPOS>BOND
     1    14    15    1
     2    15    16    1
     3    15    17    1
     4    15     8    1
     5     8     9   ar
     6     9    10   ar
     7    10    11   ar
     8    11     2    1
     9     2     3    1
    10     3     4    1
    11     4     5    1
    12     5     1    1
    13     1    18    1
    14    18    19   ar
    15    19    20   ar
    16    20    21   ar
    17    21    24    1
    18    24    25    1
    19    24    26    1
    20    24    27    1
    21    21    22   ar
    22    22    23   ar
    23     1    28    1
    24    28    29   ar
    25    29    30   ar
    26    30    31   ar
    27    31    32   ar
    28    32    33   ar
    29     5     6    1
    30     6     7    1
    31    11    12   ar
    32    12    13   ar
    33    13     8   ar
    34     7     2    1
    35    23    18   ar
    36    33    28   ar
@<TRIPOS>MOLECULE
*****
 33 36 0 0 0
SMALL
GASTEIGER

@<TRIPOS>ATOM
      1 N          62.0669   93.8530   -1.8283 N.pl3   1  UNL1       -0.2872
      2 N          57.7412   94.8824   -2.5203 N.pl3   1  UNL1       -0.3074
      3 C          58.3087   93.6119   -3.0804 C.3     1  UNL1        0.0925
      4 C          59.7506   93.2688   -2.8497 C.3     1  UNL1        0.0415
      5 C          60.6250   94.1961   -2.0590 C.3     1  UNL1        0.0807
      6 C          60.0575   95.4667   -1.4989 C.3     1  UNL1        0.0415
      7 C          58.6156   95.8098   -1.7296 C.3     1  UNL1        0.0925
      8 C          53.4155   95.9118   -3.2123 C.ar    1  UNL1        0.0715
      9 C          54.3715   95.8735   -4.3676 C.ar    1  UNL1        0.0051
     10 C          55.8133   95.5303   -4.1369 C.ar    1  UNL1        0.0145
     11 C          56.2993   95.2255   -2.7510 C.ar    1  UNL1        0.0478
     12 C          55.3434   95.2639   -1.5957 C.ar    1  UNL1        0.0145
     13 C          53.9015   95.6070   -1.8264 C.ar    1  UNL1        0.0051
     14 F          50.5318   96.5981   -3.6737 F       1  UNL1       -0.1659
     15 C          51.9736   96.2549   -3.4430 C.3     1  UNL1        0.4186
     16 F          51.8041   96.5274   -1.9777 F       1  UNL1       -0.1659
     17 F          52.1432   95.9825   -4.9083 F       1  UNL1       -0.1659
     18 C          63.0345   93.8699   -2.9744 C.ar    1  UNL1        0.0515
     19 C          63.4948   95.1771   -3.5482 C.ar    1  UNL1        0.0148
     20 C          64.4623   95.1940   -4.6943 C.ar    1  UNL1        0.0051
     21 C          64.9697   93.9036   -5.2666 C.ar    1  UNL1        0.0715
     22 C          64.5094   92.5964   -4.6928 C.ar    1  UNL1        0.0051
     23 C          63.5418   92.5795   -3.5467 C.ar    1  UNL1        0.0148
     24 C          65.9373   93.9205   -6.4127 C.3     1  UNL1        0.4186
     25 F          66.9049   93.9374   -7.5587 F       1  UNL1       -0.1659
     26 F          65.6947   92.4577   -6.6391 F       1  UNL1       -0.1659
     27 F          66.1799   95.3833   -6.1862 F       1  UNL1       -0.1659
     28 C          62.5412   93.4930   -0.4516 C.ar    1  UNL1        0.0710
     29 C          61.6385   92.7391    0.4794 C.ar    1  UNL1        0.0180
     30 C          62.1129   92.3792    1.8562 C.ar    1  UNL1        0.0220
     31 C          63.4899   92.7731    2.3019 C.ar    1  UNL1        0.0990
     32 N          64.3926   93.5270    1.3708 N.ar    1  UNL1       -0.2410
     33 C          63.9183   93.8869   -0.0059 C.ar    1  UNL1        0.1136
@<TRIPOS>BOND
     1    14    15    1
     2    15    16    1
     3    15    17    1
     4    15     8    1
     5     8     9   ar
     6     9    10   ar
     7    10    11   ar
     8    11     2    1
     9     2     3    1
    10     3     4    1
    11     4     5    1
    12     5     1    1
    13     1    18    1
    14    18    19   ar
    15    19    20   ar
    16    20    21   ar
    17    21    24    1
    18    24    25    1
    19    24    26    1
    20    24    27    1
    21    21    22   ar
    22    22    23   ar
    23     1    28    1
    24    28    29   ar
    25    29    30   ar
    26    30    31   ar
    27    31    32   ar
    28    32    33   ar
    29     5     6    1
    30     6     7    1
    31    11    12   ar
    32    12    13   ar
    33    13     8   ar
    34     7     2    1
    35    23    18   ar
    36    33    28   ar
@<TRIPOS>MOLECULE
*****
 33 36 0 0 0
SMALL
GASTEIGER

@<TRIPOS>ATOM
      1 N          60.4157   94.4356   -1.2711 N.pl3   1  UNL1       -0.2872
      2 N          56.1833   95.2899   -2.5386 N.pl3   1  UNL1       -0.3074
      3 C          56.5708   93.9086   -2.1009 C.3     1  UNL1        0.0925
      4 C          57.9816   93.6238   -1.6784 C.3     1  UNL1        0.0415
      5 C          59.0049   94.7204   -1.6936 C.3     1  UNL1        0.0807
      6 C          58.6174   96.1018   -2.1313 C.3     1  UNL1        0.0415
      7 C          57.2066   96.3865   -2.5538 C.3     1  UNL1        0.0925
      8 C          51.9508   96.1442   -3.8060 C.ar    1  UNL1        0.0715
      9 C          52.2614   95.8715   -2.3641 C.ar    1  UNL1        0.0051
     10 C          53.6722   95.5867   -1.9416 C.ar    1  UNL1        0.0145
     11 C          54.7724   95.5747   -2.9610 C.ar    1  UNL1        0.0478
     12 C          54.4619   95.8474   -4.4029 C.ar    1  UNL1        0.0145
     13 C          53.0510   96.1322   -4.8254 C.ar    1  UNL1        0.0051
     14 F          49.1291   96.7137   -4.6509 F       1  UNL1       -0.1659
     15 C          50.5400   96.4290   -4.2285 C.3     1  UNL1        0.4186
     16 F          50.2072   96.8557   -2.8295 F       1  UNL1       -0.1659
     17 F          50.8727   96.0022   -5.6274 F       1  UNL1       -0.1659
     18 C          61.5519   94.7273   -2.2060 C.ar    1  UNL1        0.0515
     19 C          61.8526   93.7887   -3.3368 C.ar    1  UNL1        0.0148
     20 C          62.9888   94.0803   -4.2716 C.ar    1  UNL1        0.0051
     21 C          63.8244   95.3105   -4.0757 C.ar    1  UNL1        0.0715
     22 C          63.5238   96.2491   -2.9450 C.ar    1  UNL1        0.0051
     23 C          62.3875   95.9575   -2.0101 C.ar    1  UNL1        0.0148
     24 C          64.9607   95.6022   -5.0106 C.3     1  UNL1        0.4186
     25 F          66.0968   95.8937   -5.9455 F       1  UNL1       -0.1659
     26 F          65.7920   96.0719   -3.8538 F       1  UNL1       -0.1659
     27 F          64.1293   95.1325   -6.1674 F       1  UNL1       -0.1659
     28 C          60.6904   93.8592    0.0861 C.ar    1  UNL1        0.0710
     29 C          61.8131   92.8822    0.2729 C.ar    1  UNL1        0.0180
     30 C          62.0877   92.3057    1.6303 C.ar    1  UNL1        0.0220
     31 C          61.2396   92.7064    2.8008 C.ar    1  UNL1        0.0990
     32 N          60.1169   93.6835    2.6141 N.ar    1  UNL1       -0.2410
     33 C          59.8423   94.2599    1.2568 C.ar    1  UNL1        0.1136
@<TRIPOS>BOND
     1    14    15    1
     2    15    16    1
     3    15    17    1
     4    15     8    1
     5     8     9   ar
     6     9    10   ar
     7    10    11   ar
     8    11     2    1
     9     2     3    1
    10     3     4    1
    11     4     5    1
    12     5     1    1
    13     1    18    1
    14    18    19   ar
    15    19    20   ar
    16    20    21   ar
    17    21    24    1
    18    24    25    1
    19    24    26    1
    20    24    27    1
    21    21    22   ar
    22    22    23   ar
    23     1    28    1
    24    28    29   ar
    25    29    30   ar
    26    30    31   ar
    27    31    32   ar
    28    32    33   ar
    29     5     6    1
    30     6     7    1
    31    11    12   ar
    32    12    13   ar
    33    13     8   ar
    34     7     2    1
    35    23    18   ar
    36    33    28   ar
@<TRIPOS>MOLECULE
*****
 33 36 0 0 0
SMALL
GASTEIGER

@<TRIPOS>ATOM
      1 N          64.8721   90.7029   13.8305 N.pl3   1  UNL1       -0.2872
      2 N          63.6274   86.3879   13.5449 N.pl3   1  UNL1       -0.3074
      3 C          63.1862   87.3667   12.4974 C.3     1  UNL1        0.0925
      4 C          63.6011   88.8050   12.5926 C.3     1  UNL1        0.0415
      5 C          64.4572   89.2646   13.7353 C.3     1  UNL1        0.0807
      6 C          64.8984   88.2858   14.7828 C.3     1  UNL1        0.0415
      7 C          64.4835   86.8474   14.6876 C.3     1  UNL1        0.0925
      8 C          62.3827   82.0729   13.2593 C.ar    1  UNL1        0.0715
      9 C          62.3820   82.7672   14.5888 C.ar    1  UNL1        0.0051
     10 C          62.7969   84.2056   14.6840 C.ar    1  UNL1        0.0145
     11 C          63.2125   84.9496   13.4497 C.ar    1  UNL1        0.0478
     12 C          63.2132   84.2552   12.1201 C.ar    1  UNL1        0.0145
     13 C          62.7983   82.8169   12.0249 C.ar    1  UNL1        0.0051
     14 F          61.5529   79.1962   13.0688 F       1  UNL1       -0.1659
     15 C          61.9678   80.6346   13.1640 C.3     1  UNL1        0.4186
     16 F          62.8921   80.4452   11.9979 F       1  UNL1       -0.1659
     17 F          61.0436   80.8240   14.3302 F       1  UNL1       -0.1659
     18 C          65.4496   91.3977   12.6332 C.ar    1  UNL1        0.0515
     19 C          64.5490   91.8526   11.5232 C.ar    1  UNL1        0.0148
     20 C          65.1266   92.5475   10.3259 C.ar    1  UNL1        0.0051
     21 C          66.6047   92.7874   10.2385 C.ar    1  UNL1        0.0715
     22 C          67.5052   92.3325   11.3484 C.ar    1  UNL1        0.0051
     23 C          66.9277   91.6377   12.5458 C.ar    1  UNL1        0.0148
     24 C          67.1822   93.4823    9.0411 C.3     1  UNL1        0.4186
     25 F          67.7597   94.1771    7.8438 F       1  UNL1       -0.1659
     26 F          68.1098   92.3251    8.8169 F       1  UNL1       -0.1659
     27 F          66.2546   94.6395    9.2653 F       1  UNL1       -0.1659
     28 C          64.7094   91.4464   15.1231 C.ar    1  UNL1        0.0710
     29 C          65.8617   92.2184   15.6944 C.ar    1  UNL1        0.0180
     30 C          65.6990   92.9619   16.9870 C.ar    1  UNL1        0.0220
     31 C          64.3841   92.9334   17.7082 C.ar    1  UNL1        0.0990
     32 N          63.2318   92.1615   17.1369 N.ar    1  UNL1       -0.2410
     33 C          63.3945   91.4180   15.8444 C.ar    1  UNL1        0.1136
@<TRIPOS>BOND
     1    14    15    1
     2    15    16    1
     3    15    17    1
     4    15     8    1
     5     8     9   ar
     6     9    10   ar
     7    10    11   ar
     8    11     2    1
     9     2     3    1
    10     3     4    1
    11     4     5    1
    12     5     1    1
    13     1    18    1
    14    18    19   ar
    15    19    20   ar
    16    20    21   ar
    17    21    24    1
    18    24    25    1
    19    24    26    1
    20    24    27    1
    21    21    22   ar
    22    22    23   ar
    23     1    28    1
    24    28    29   ar
    25    29    30   ar
    26    30    31   ar
    27    31    32   ar
    28    32    33   ar
    29     5     6    1
    30     6     7    1
    31    11    12   ar
    32    12    13   ar
    33    13     8   ar
    34     7     2    1
    35    23    18   ar
    36    33    28   ar
@<TRIPOS>MOLECULE
*****
 33 36 0 0 0
SMALL
GASTEIGER

@<TRIPOS>ATOM
      1 N          44.6880   78.7889   17.9405 N.pl3   1  UNL1       -0.2872
      2 N          45.3750   74.4795   16.8416 N.pl3   1  UNL1       -0.3074
      3 C          44.1871   75.2131   16.2933 C.3     1  UNL1        0.0925
      4 C          43.9581   76.6496   16.6596 C.3     1  UNL1        0.0415
      5 C          44.9170   77.3524   17.5742 C.3     1  UNL1        0.0807
      6 C          46.1049   76.6188   18.1225 C.3     1  UNL1        0.0415
      7 C          46.3339   75.1823   17.7562 C.3     1  UNL1        0.0925
      8 C          46.0619   70.1701   15.7427 C.ar    1  UNL1        0.0715
      9 C          46.1598   70.6036   17.1754 C.ar    1  UNL1        0.0051
     10 C          45.9308   72.0401   17.5417 C.ar    1  UNL1        0.0145
     11 C          45.6040   73.0431   16.4753 C.ar    1  UNL1        0.0478
     12 C          45.5061   72.6096   15.0427 C.ar    1  UNL1        0.0145
     13 C          45.7351   71.1731   14.6764 C.ar    1  UNL1        0.0051
     14 F          46.5199   67.2972   15.0102 F       1  UNL1       -0.1659
     15 C          46.2909   68.7337   15.3765 C.3     1  UNL1        0.4186
     16 F          46.9881   69.1651   14.1203 F       1  UNL1       -0.1659
     17 F          45.5937   68.3023   16.6326 F       1  UNL1       -0.1659
     18 C          44.4771   79.8127   16.8648 C.ar    1  UNL1        0.0515
     19 C          43.8546   79.4124   15.5600 C.ar    1  UNL1        0.0148
     20 C          43.6436   80.4363   14.4843 C.ar    1  UNL1        0.0051
     21 C          44.0551   81.8604   14.7133 C.ar    1  UNL1        0.0715
     22 C          44.6776   82.2608   16.0180 C.ar    1  UNL1        0.0051
     23 C          44.8885   81.2369   17.0938 C.ar    1  UNL1        0.0148
     24 C          43.8441   82.8843   13.6375 C.3     1  UNL1        0.4186
     25 F          43.6332   83.9082   12.5618 F       1  UNL1       -0.1659
     26 F          43.9997   81.8190   12.5931 F       1  UNL1       -0.1659
     27 F          43.6886   83.9496   14.6820 F       1  UNL1       -0.1659
     28 C          44.6700   79.2015   19.3825 C.ar    1  UNL1        0.0710
     29 C          43.6511   78.6189   20.3166 C.ar    1  UNL1        0.0180
     30 C          43.6331   79.0316   21.7587 C.ar    1  UNL1        0.0220
     31 C          44.6339   80.0267   22.2665 C.ar    1  UNL1        0.0990
     32 N          45.6528   80.6093   21.3324 N.ar    1  UNL1       -0.2410
     33 C          45.6708   80.1967   19.8904 C.ar    1  UNL1        0.1136
@<TRIPOS>BOND
     1    14    15    1
     2    15    16    1
     3    15    17    1
     4    15     8    1
     5     8     9   ar
     6     9    10   ar
     7    10    11   ar
     8    11     2    1
     9     2     3    1
    10     3     4    1
    11     4     5    1
    12     5     1    1
    13     1    18    1
    14    18    19   ar
    15    19    20   ar
    16    20    21   ar
    17    21    24    1
    18    24    25    1
    19    24    26    1
    20    24    27    1
    21    21    22   ar
    22    22    23   ar
    23     1    28    1
    24    28    29   ar
    25    29    30   ar
    26    30    31   ar
    27    31    32   ar
    28    32    33   ar
    29     5     6    1
    30     6     7    1
    31    11    12   ar
    32    12    13   ar
    33    13     8   ar
    34     7     2    1
    35    23    18   ar
    36    33    28   ar
@<TRIPOS>MOLECULE
*****
 33 36 0 0 0
SMALL
GASTEIGER

@<TRIPOS>ATOM
      1 N          62.5234   84.2913   12.2584 N.pl3   1  UNL1       -0.2872
      2 N          60.7887   87.2109    9.3059 N.pl3   1  UNL1       -0.3074
      3 C          60.6042   87.4337   10.7778 C.3     1  UNL1        0.0925
      4 C          61.1825   86.4605   11.7619 C.3     1  UNL1        0.0415
      5 C          61.9452   85.2645   11.2743 C.3     1  UNL1        0.0807
      6 C          62.1297   85.0418    9.8024 C.3     1  UNL1        0.0415
      7 C          61.5515   86.0149    8.8183 C.3     1  UNL1        0.0925
      8 C          59.0541   90.1305    6.3535 C.ar    1  UNL1        0.0715
      9 C          60.0791   90.5891    7.3479 C.ar    1  UNL1        0.0051
     10 C          60.6574   89.6159    8.3320 C.ar    1  UNL1        0.0145
     11 C          60.2105   88.1841    8.3218 C.ar    1  UNL1        0.0478
     12 C          59.1854   87.7254    7.3274 C.ar    1  UNL1        0.0145
     13 C          58.6072   88.6986    6.3433 C.ar    1  UNL1        0.0051
     14 F          57.8976   92.0768    4.3852 F       1  UNL1       -0.1659
     15 C          58.4758   91.1036    5.3693 C.3     1  UNL1        0.4186
     16 F          59.8503   91.6326    5.0848 F       1  UNL1       -0.1659
     17 F          57.1013   90.5747    5.6538 F       1  UNL1       -0.1659
     18 C          62.6432   82.8406   11.8966 C.ar    1  UNL1        0.0515
     19 C          62.2071   81.7862   12.8704 C.ar    1  UNL1        0.0148
     20 C          62.3269   80.3355   12.5085 C.ar    1  UNL1        0.0051
     21 C          62.8828   79.9390   11.1729 C.ar    1  UNL1        0.0715
     22 C          63.3189   80.9933   10.1992 C.ar    1  UNL1        0.0051
     23 C          63.1991   82.4442   10.5610 C.ar    1  UNL1        0.0148
     24 C          63.0025   78.4882   10.8111 C.3     1  UNL1        0.4186
     25 F          63.1223   77.0375   10.4493 F       1  UNL1       -0.1659
     26 F          62.7154   78.1097   12.2339 F       1  UNL1       -0.1659
     27 F          63.2897   78.8668    9.3884 F       1  UNL1       -0.1659
     28 C          62.9819   84.7689   13.6044 C.ar    1  UNL1        0.0710
     29 C          64.2856   85.4987   13.7372 C.ar    1  UNL1        0.0180
     30 C          64.7441   85.9763   15.0833 C.ar    1  UNL1        0.0220
     31 C          63.8988   85.7240   16.2965 C.ar    1  UNL1        0.0990
     32 N          62.5951   84.9942   16.1636 N.ar    1  UNL1       -0.2410
     33 C          62.1366   84.5166   14.8177 C.ar    1  UNL1        0.1136
@<TRIPOS>BOND
     1    14    15    1
     2    15    16    1
     3    15    17    1
     4    15     8    1
     5     8     9   ar
     6     9    10   ar
     7    10    11   ar
     8    11     2    1
     9     2     3    1
    10     3     4    1
    11     4     5    1
    12     5     1    1
    13     1    18    1
    14    18    19   ar
    15    19    20   ar
    16    20    21   ar
    17    21    24    1
    18    24    25    1
    19    24    26    1
    20    24    27    1
    21    21    22   ar
    22    22    23   ar
    23     1    28    1
    24    28    29   ar
    25    29    30   ar
    26    30    31   ar
    27    31    32   ar
    28    32    33   ar
    29     5     6    1
    30     6     7    1
    31    11    12   ar
    32    12    13   ar
    33    13     8   ar
    34     7     2    1
    35    23    18   ar
    36    33    28   ar
@<TRIPOS>MOLECULE
*****
 33 36 0 0 0
SMALL
GASTEIGER

@<TRIPOS>ATOM
      1 N          72.3278   73.5715   13.4887 N.pl3   1  UNL1       -0.2872
      2 N          72.3359   77.6228   11.5298 N.pl3   1  UNL1       -0.3074
      3 C          73.6120   76.8427   11.6448 C.3     1  UNL1        0.0925
      4 C          73.6093   75.4923   12.2978 C.3     1  UNL1        0.0415
      5 C          72.3305   74.9219   12.8358 C.3     1  UNL1        0.0807
      6 C          71.0545   75.7020   12.7208 C.3     1  UNL1        0.0415
      7 C          71.0572   77.0524   12.0678 C.3     1  UNL1        0.0925
      8 C          72.3440   81.6740    9.5710 C.ar    1  UNL1        0.0715
      9 C          71.9484   80.4607    8.7828 C.ar    1  UNL1        0.0051
     10 C          71.9457   79.1103    9.4358 C.ar    1  UNL1        0.0145
     11 C          72.3386   78.9732   10.8769 C.ar    1  UNL1        0.0478
     12 C          72.7343   80.1865   11.6650 C.ar    1  UNL1        0.0145
     13 C          72.7370   81.5370   11.0120 C.ar    1  UNL1        0.0051
     14 F          72.3495   84.3749    8.2650 F       1  UNL1       -0.1659
     15 C          72.3468   83.0244    8.9180 C.3     1  UNL1        0.4186
     16 F          72.8294   82.4054    7.6398 F       1  UNL1       -0.1659
     17 F          71.8641   83.6435   10.1962 F       1  UNL1       -0.1659
     18 C          72.2398   73.4607   14.9820 C.ar    1  UNL1        0.0515
     19 C          73.4721   73.1699   15.7865 C.ar    1  UNL1        0.0148
     20 C          73.3841   73.0590   17.2797 C.ar    1  UNL1        0.0051
     21 C          72.0638   73.2389   17.9686 C.ar    1  UNL1        0.0715
     22 C          70.8316   73.5297   17.1643 C.ar    1  UNL1        0.0051
     23 C          70.9196   73.6406   15.6709 C.ar    1  UNL1        0.0148
     24 C          71.9759   73.1280   19.4620 C.3     1  UNL1        0.4186
     25 F          71.8880   73.0172   20.9553 F       1  UNL1       -0.1659
     26 F          70.5816   72.5886   19.3399 F       1  UNL1       -0.1659
     27 F          73.3701   73.6675   19.5841 F       1  UNL1       -0.1659
     28 C          72.4131   72.3320   12.6484 C.ar    1  UNL1        0.0710
     29 C          73.5443   71.3672   12.8476 C.ar    1  UNL1        0.0180
     30 C          73.6295   70.1276   12.0073 C.ar    1  UNL1        0.0220
     31 C          72.5837   69.8528   10.9677 C.ar    1  UNL1        0.0990
     32 N          71.4526   70.8176   10.7685 N.ar    1  UNL1       -0.2410
     33 C          71.3673   72.0571   11.6088 C.ar    1  UNL1        0.1136
@<TRIPOS>BOND
     1    14    15    1
     2    15    16    1
     3    15    17    1
     4    15     8    1
     5     8     9   ar
     6     9    10   ar
     7    10    11   ar
     8    11     2    1
     9     2     3    1
    10     3     4    1
    11     4     5    1
    12     5     1    1
    13     1    18    1
    14    18    19   ar
    15    19    20   ar
    16    20    21   ar
    17    21    24    1
    18    24    25    1
    19    24    26    1
    20    24    27    1
    21    21    22   ar
    22    22    23   ar
    23     1    28    1
    24    28    29   ar
    25    29    30   ar
    26    30    31   ar
    27    31    32   ar
    28    32    33   ar
    29     5     6    1
    30     6     7    1
    31    11    12   ar
    32    12    13   ar
    33    13     8   ar
    34     7     2    1
    35    23    18   ar
    36    33    28   ar
