@<TRIPOS>MOLECULE
*****
 30 33 0 0 0
SMALL
GASTEIGER

@<TRIPOS>ATOM
      1 N          62.4040   87.4259   11.6670 N.ar    1  UNL1       -0.2644
      2 C          62.0757   88.1076   10.3718 C.ar    1  UNL1        0.2037
      3 N          62.5799   89.4950   10.1055 N.ar    1  UNL1       -0.2147
      4 C          63.4125   90.2008   11.1345 C.ar    1  UNL1        0.0909
      5 C          63.9167   91.5881   10.8683 C.ar    1  UNL1        0.0195
      6 C          64.7492   92.2938   11.8972 C.ar    1  UNL1        0.0039
      7 C          65.0776   91.6122   13.1924 C.ar    1  UNL1        0.0299
      8 C          64.5734   90.2248   13.4587 C.ar    1  UNL1        0.1461
      9 F          64.9017   89.5432   14.7539 F       1  UNL1       -0.2040
     10 C          63.7408   89.5191   12.4297 C.ar    1  UNL1        0.1013
     11 C          63.2366   88.1317   12.6959 C.ar    1  UNL1        0.2667
     12 O          63.5649   87.4500   13.9911 O.2     1  UNL1       -0.2668
     13 N          61.2431   87.4018    9.3428 N.pl3   1  UNL1       -0.2781
     14 C          59.7809   87.7127    9.2193 C.3     1  UNL1        0.0937
     15 C          58.9484   87.0070    8.1903 C.3     1  UNL1        0.0229
     16 C          59.5781   85.9903    7.2849 C.3     1  UNL1        0.0190
     17 C          61.0403   85.6793    7.4084 C.3     1  UNL1        0.0710
     18 N          61.6699   84.6626    6.5030 N.3     1  UNL1       -0.3208
     19 C          61.8728   86.3851    8.4374 C.3     1  UNL1        0.1089
     20 H          60.9633   84.2860    5.8712 H       1  UNL1        0.1189
     21 H          62.0634   83.9061    7.0628 H       1  UNL1        0.1189
     22 C          61.8998   86.0385   11.9332 C.3     1  UNL1        0.1391
     23 C          63.2129   84.0173   12.9029 C.ar    1  UNL1        0.0663
     24 C          64.1183   82.8386   12.7006 C.ar    1  UNL1        0.0100
     25 C          64.6159   82.5024   11.3261 C.ar    1  UNL1        0.0007
     26 C          64.2081   83.3448   10.1538 C.ar    1  UNL1       -0.0002
     27 C          63.3028   84.5236   10.3562 C.ar    1  UNL1       -0.0017
     28 C          62.8052   84.8598   11.7308 C.ar    1  UNL1        0.0102
     29 N          62.2177   84.6898   15.6520 N.1     1  UNL1       -0.1908
     30 C          62.7153   84.3535   14.2774 C.1     1  UNL1        0.1002
@<TRIPOS>BOND
     1    29    30    3
     2    30    23    1
     3    23    24   ar
     4    24    25   ar
     5    25    26   ar
     6    26    27   ar
     7    27    28   ar
     8    28    22    1
     9    22     1    1
    10     1     2   ar
    11     2    13    1
    12    13    14    1
    13    14    15    1
    14    15    16    1
    15    16    17    1
    16    17    18    1
    17    17    19    1
    18     2     3   ar
    19     3     4   ar
    20     4     5   ar
    21     5     6   ar
    22     6     7   ar
    23     7     8   ar
    24     8     9    1
    25     8    10   ar
    26    10    11   ar
    27    11    12    2
    28    28    23   ar
    29    11     1   ar
    30    19    13    1
    31    10     4   ar
    32    18    20    1
    33    18    21    1
@<TRIPOS>MOLECULE
*****
 30 33 0 0 0
SMALL
GASTEIGER

@<TRIPOS>ATOM
      1 N          63.6869   88.5182   13.0617 N.ar    1  UNL1       -0.2644
      2 C          63.6880   89.9985   12.8193 C.ar    1  UNL1        0.2037
      3 N          62.8252   90.5824   11.7402 N.ar    1  UNL1       -0.2147
      4 C          61.9612   89.6861   10.9034 C.ar    1  UNL1        0.0909
      5 C          61.0984   90.2701    9.8243 C.ar    1  UNL1        0.0195
      6 C          60.2344   89.3737    8.9876 C.ar    1  UNL1        0.0039
      7 C          60.2332   87.8934    9.2300 C.ar    1  UNL1        0.0299
      8 C          61.0961   87.3095   10.3091 C.ar    1  UNL1        0.1461
      9 F          61.0949   85.8292   10.5516 F       1  UNL1       -0.2040
     10 C          61.9600   88.2058   11.1459 C.ar    1  UNL1        0.1013
     11 C          62.8229   87.6219   12.2250 C.ar    1  UNL1        0.2667
     12 O          62.8217   86.1416   12.4674 O.2     1  UNL1       -0.2668
     13 N          64.5520   90.8948   13.6561 N.pl3   1  UNL1       -0.2781
     14 C          65.8762   91.3642   13.1305 C.3     1  UNL1        0.0937
     15 C          66.7401   92.2605   13.9673 C.3     1  UNL1        0.0229
     16 C          66.2799   92.6874   15.3296 C.3     1  UNL1        0.0190
     17 C          64.9558   92.2180   15.8552 C.3     1  UNL1        0.0710
     18 N          64.4956   92.6448   17.2176 N.3     1  UNL1       -0.3208
     19 C          64.0919   91.3217   15.0185 C.3     1  UNL1        0.1089
     20 H          65.2013   93.2471   17.6416 H       1  UNL1        0.1189
     21 H          64.3556   91.8212   17.8027 H       1  UNL1        0.1189
     22 C          64.5497   87.9343   14.1409 C.3     1  UNL1        0.1391
     23 C          63.8945   85.9913   15.7363 C.ar    1  UNL1        0.0663
     24 C          63.2747   85.5143   17.0163 C.ar    1  UNL1        0.0100
     25 C          62.6902   86.5033   17.9808 C.ar    1  UNL1        0.0007
     26 C          62.7256   87.9694   17.6653 C.ar    1  UNL1       -0.0002
     27 C          63.3454   88.4463   16.3854 C.ar    1  UNL1       -0.0017
     28 C          63.9299   87.4573   15.4209 C.ar    1  UNL1        0.0102
     29 N          65.0634   84.0132   13.8074 N.1     1  UNL1       -0.1908
     30 C          64.4789   85.0023   14.7719 C.1     1  UNL1        0.1002
@<TRIPOS>BOND
     1    29    30    3
     2    30    23    1
     3    23    24   ar
     4    24    25   ar
     5    25    26   ar
     6    26    27   ar
     7    27    28   ar
     8    28    22    1
     9    22     1    1
    10     1     2   ar
    11     2    13    1
    12    13    14    1
    13    14    15    1
    14    15    16    1
    15    16    17    1
    16    17    18    1
    17    17    19    1
    18     2     3   ar
    19     3     4   ar
    20     4     5   ar
    21     5     6   ar
    22     6     7   ar
    23     7     8   ar
    24     8     9    1
    25     8    10   ar
    26    10    11   ar
    27    11    12    2
    28    28    23   ar
    29    11     1   ar
    30    19    13    1
    31    10     4   ar
    32    18    20    1
    33    18    21    1
@<TRIPOS>MOLECULE
*****
 30 33 0 0 0
SMALL
GASTEIGER

@<TRIPOS>ATOM
      1 N          63.2551   89.8668   13.0074 N.ar    1  UNL1       -0.2644
      2 C          64.1814   89.5757   14.1508 C.ar    1  UNL1        0.2037
      3 N          65.4447   90.3679   14.3130 N.ar    1  UNL1       -0.2147
      4 C          65.7819   91.4512   13.3317 C.ar    1  UNL1        0.0909
      5 C          67.0453   92.2434   13.4938 C.ar    1  UNL1        0.0195
      6 C          67.3824   93.3266   12.5126 C.ar    1  UNL1        0.0039
      7 C          66.4562   93.6177   11.3692 C.ar    1  UNL1        0.0299
      8 C          65.1928   92.8255   11.2070 C.ar    1  UNL1        0.1461
      9 F          64.2666   93.1166   10.0636 F       1  UNL1       -0.2040
     10 C          64.8557   91.7423   12.1883 C.ar    1  UNL1        0.1013
     11 C          63.5923   90.9500   12.0261 C.ar    1  UNL1        0.2667
     12 O          62.6660   91.2411   10.8827 O.2     1  UNL1       -0.2668
     13 N          63.8442   88.4924   15.1321 N.pl3   1  UNL1       -0.2781
     14 C          63.1230   88.8298   16.4033 C.3     1  UNL1        0.0937
     15 C          62.7859   87.7466   17.3845 C.3     1  UNL1        0.0229
     16 C          63.1699   86.3258   17.0944 C.3     1  UNL1        0.0190
     17 C          63.8910   85.9884   15.8232 C.3     1  UNL1        0.0710
     18 N          64.2750   84.5677   15.5332 N.3     1  UNL1       -0.3208
     19 C          64.2282   87.0717   14.8420 C.3     1  UNL1        0.1089
     20 H          63.9703   83.9696   16.3012 H       1  UNL1        0.1189
     21 H          65.2880   84.5029   15.4331 H       1  UNL1        0.1189
     22 C          61.9917   89.0745   12.8452 C.3     1  UNL1        0.1391
     23 C          60.5934   88.8139   10.6711 C.ar    1  UNL1        0.0663
     24 C          60.3173   88.0980    9.3822 C.ar    1  UNL1        0.0100
     25 C          61.1632   86.9270    8.9785 C.ar    1  UNL1        0.0007
     26 C          62.2855   86.4718    9.8637 C.ar    1  UNL1       -0.0002
     27 C          62.5616   87.1877   11.1526 C.ar    1  UNL1       -0.0017
     28 C          61.7156   88.3587   11.5563 C.ar    1  UNL1        0.0102
     29 N          58.9013   91.1559   11.4787 N.1     1  UNL1       -0.1908
     30 C          59.7474   89.9848   11.0749 C.1     1  UNL1        0.1002
@<TRIPOS>BOND
     1    29    30    3
     2    30    23    1
     3    23    24   ar
     4    24    25   ar
     5    25    26   ar
     6    26    27   ar
     7    27    28   ar
     8    28    22    1
     9    22     1    1
    10     1     2   ar
    11     2    13    1
    12    13    14    1
    13    14    15    1
    14    15    16    1
    15    16    17    1
    16    17    18    1
    17    17    19    1
    18     2     3   ar
    19     3     4   ar
    20     4     5   ar
    21     5     6   ar
    22     6     7   ar
    23     7     8   ar
    24     8     9    1
    25     8    10   ar
    26    10    11   ar
    27    11    12    2
    28    28    23   ar
    29    11     1   ar
    30    19    13    1
    31    10     4   ar
    32    18    20    1
    33    18    21    1
@<TRIPOS>MOLECULE
*****
 30 33 0 0 0
SMALL
GASTEIGER

@<TRIPOS>ATOM
      1 N          63.8825   89.5376   12.9770 N.ar    1  UNL1       -0.2644
      2 C          64.3238   89.4810   14.4095 C.ar    1  UNL1        0.2037
      3 N          65.1364   90.6008   14.9887 N.ar    1  UNL1       -0.2147
      4 C          65.5078   91.7773   14.1354 C.ar    1  UNL1        0.0909
      5 C          66.3204   92.8972   14.7146 C.ar    1  UNL1        0.0195
      6 C          66.6917   94.0736   13.8614 C.ar    1  UNL1        0.0039
      7 C          66.2504   94.1302   12.4289 C.ar    1  UNL1        0.0299
      8 C          65.4377   93.0104   11.8497 C.ar    1  UNL1        0.1461
      9 F          64.9964   93.0669   10.4172 F       1  UNL1       -0.2040
     10 C          65.0664   91.8339   12.7030 C.ar    1  UNL1        0.1013
     11 C          64.2537   90.7140   12.1238 C.ar    1  UNL1        0.2667
     12 O          63.8124   90.7706   10.6913 O.2     1  UNL1       -0.2668
     13 N          63.9525   88.3045   15.2628 N.pl3   1  UNL1       -0.2781
     14 C          63.1289   88.5056   16.5002 C.3     1  UNL1        0.0937
     15 C          62.7577   87.3292   17.3534 C.3     1  UNL1        0.0229
     16 C          63.2099   85.9515   16.9692 C.3     1  UNL1        0.0190
     17 C          64.0334   85.7504   15.7318 C.3     1  UNL1        0.0710
     18 N          64.4857   84.3728   15.3475 N.3     1  UNL1       -0.3208
     19 C          64.4047   86.9269   14.8786 C.3     1  UNL1        0.1089
     20 H          64.1459   83.6995   16.0343 H       1  UNL1        0.1189
     21 H          65.5049   84.3450   15.3195 H       1  UNL1        0.1189
     22 C          63.0698   88.4177   12.3978 C.3     1  UNL1        0.1391
     23 C          61.5261   87.6928   10.4378 C.ar    1  UNL1        0.0663
     24 C          60.4047   87.9932    9.4880 C.ar    1  UNL1        0.0100
     25 C          59.7057   89.3190    9.5481 C.ar    1  UNL1        0.0007
     26 C          60.1280   90.3444   10.5583 C.ar    1  UNL1       -0.0002
     27 C          61.2494   90.0440   11.5082 C.ar    1  UNL1       -0.0017
     28 C          61.9484   88.7181   11.4479 C.ar    1  UNL1        0.0102
     29 N          62.9242   85.0412   10.3174 N.1     1  UNL1       -0.1908
     30 C          62.2251   86.3670   10.3777 C.1     1  UNL1        0.1002
@<TRIPOS>BOND
     1    29    30    3
     2    30    23    1
     3    23    24   ar
     4    24    25   ar
     5    25    26   ar
     6    26    27   ar
     7    27    28   ar
     8    28    22    1
     9    22     1    1
    10     1     2   ar
    11     2    13    1
    12    13    14    1
    13    14    15    1
    14    15    16    1
    15    16    17    1
    16    17    18    1
    17    17    19    1
    18     2     3   ar
    19     3     4   ar
    20     4     5   ar
    21     5     6   ar
    22     6     7   ar
    23     7     8   ar
    24     8     9    1
    25     8    10   ar
    26    10    11   ar
    27    11    12    2
    28    28    23   ar
    29    11     1   ar
    30    19    13    1
    31    10     4   ar
    32    18    20    1
    33    18    21    1
@<TRIPOS>MOLECULE
*****
 30 33 0 0 0
SMALL
GASTEIGER

@<TRIPOS>ATOM
      1 N          62.1301   86.8859   11.5664 N.ar    1  UNL1       -0.2644
      2 C          62.8536   86.2650   12.7244 C.ar    1  UNL1        0.2037
      3 N          63.7192   87.1121   13.6093 N.ar    1  UNL1       -0.2147
      4 C          63.8612   88.5802   13.3362 C.ar    1  UNL1        0.0909
      5 C          64.7268   89.4274   14.2211 C.ar    1  UNL1        0.0195
      6 C          64.8688   90.8954   13.9480 C.ar    1  UNL1        0.0039
      7 C          64.1453   91.5163   12.7900 C.ar    1  UNL1        0.0299
      8 C          63.2797   90.6692   11.9051 C.ar    1  UNL1        0.1461
      9 F          62.5562   91.2901   10.7471 F       1  UNL1       -0.2040
     10 C          63.1377   89.2012   12.1782 C.ar    1  UNL1        0.1013
     11 C          62.2721   88.3539   11.2933 C.ar    1  UNL1        0.2667
     12 O          61.5486   88.9749   10.1353 O.2     1  UNL1       -0.2668
     13 N          62.7115   84.7969   12.9975 N.pl3   1  UNL1       -0.2781
     14 C          62.2887   84.3243   14.3568 C.3     1  UNL1        0.0937
     15 C          62.1467   82.8563   14.6298 C.3     1  UNL1        0.0229
     16 C          62.4274   81.8607   13.5435 C.3     1  UNL1        0.0190
     17 C          62.8502   82.3333   12.1841 C.3     1  UNL1        0.0710
     18 N          63.1309   81.3378   11.0978 N.3     1  UNL1       -0.3208
     19 C          62.9922   83.8013   11.9111 C.3     1  UNL1        0.1089
     20 H          62.9855   80.3938   11.4558 H       1  UNL1        0.1189
     21 H          64.0969   81.4381   10.7860 H       1  UNL1        0.1189
     22 C          61.2645   86.0387   10.6815 C.3     1  UNL1        0.1391
     23 C          60.9513   85.8446    8.1096 C.ar    1  UNL1        0.0663
     24 C          61.4571   85.4000    6.7693 C.ar    1  UNL1        0.0100
     25 C          62.7818   84.7048    6.6605 C.ar    1  UNL1        0.0007
     26 C          63.6008   84.4542    7.8920 C.ar    1  UNL1       -0.0002
     27 C          63.0950   84.8988    9.2323 C.ar    1  UNL1       -0.0017
     28 C          61.7702   85.5940    9.3411 C.ar    1  UNL1        0.0102
     29 N          58.3019   87.2351    8.3274 N.1     1  UNL1       -0.1908
     30 C          59.6267   86.5398    8.2185 C.1     1  UNL1        0.1002
@<TRIPOS>BOND
     1    29    30    3
     2    30    23    1
     3    23    24   ar
     4    24    25   ar
     5    25    26   ar
     6    26    27   ar
     7    27    28   ar
     8    28    22    1
     9    22     1    1
    10     1     2   ar
    11     2    13    1
    12    13    14    1
    13    14    15    1
    14    15    16    1
    15    16    17    1
    16    17    18    1
    17    17    19    1
    18     2     3   ar
    19     3     4   ar
    20     4     5   ar
    21     5     6   ar
    22     6     7   ar
    23     7     8   ar
    24     8     9    1
    25     8    10   ar
    26    10    11   ar
    27    11    12    2
    28    28    23   ar
    29    11     1   ar
    30    19    13    1
    31    10     4   ar
    32    18    20    1
    33    18    21    1
@<TRIPOS>MOLECULE
*****
 30 33 0 0 0
SMALL
GASTEIGER

@<TRIPOS>ATOM
      1 N          63.7798   89.1794   12.8953 N.ar    1  UNL1       -0.2644
      2 C          63.8216   90.5545   12.2975 C.ar    1  UNL1        0.2037
      3 N          62.9527   90.8876   11.1211 N.ar    1  UNL1       -0.2147
      4 C          62.0420   89.8456   10.5424 C.ar    1  UNL1        0.0909
      5 C          61.1731   90.1787    9.3660 C.ar    1  UNL1        0.0195
      6 C          60.2624   89.1368    8.7873 C.ar    1  UNL1        0.0039
      7 C          60.2206   87.7617    9.3851 C.ar    1  UNL1        0.0299
      8 C          61.0895   87.4285   10.5615 C.ar    1  UNL1        0.1461
      9 F          61.0477   86.0534   11.1593 F       1  UNL1       -0.2040
     10 C          62.0002   88.4705   11.1402 C.ar    1  UNL1        0.1013
     11 C          62.8691   88.1374   12.3167 C.ar    1  UNL1        0.2667
     12 O          62.8274   86.7623   12.9144 O.2     1  UNL1       -0.2668
     13 N          64.7324   91.5966   12.8762 N.pl3   1  UNL1       -0.2781
     14 C          65.3772   92.6110   11.9790 C.3     1  UNL1        0.0937
     15 C          66.2878   93.6529   12.5577 C.3     1  UNL1        0.0229
     16 C          66.5537   93.6804   14.0337 C.3     1  UNL1        0.0190
     17 C          65.9089   92.6660   14.9309 C.3     1  UNL1        0.0710
     18 N          66.1748   92.6935   16.4069 N.3     1  UNL1       -0.3208
     19 C          64.9982   91.6241   14.3522 C.3     1  UNL1        0.1089
     20 H          66.8109   93.4609   16.6236 H       1  UNL1        0.1189
     21 H          66.5977   91.8104   16.6927 H       1  UNL1        0.1189
     22 C          64.6488   88.8463   14.0718 C.3     1  UNL1        0.1391
     23 C          63.4534   88.5154   16.3546 C.ar    1  UNL1        0.0663
     24 C          62.9403   87.6074   17.4328 C.ar    1  UNL1        0.0100
     25 C          63.1096   86.1224   17.3062 C.ar    1  UNL1        0.0007
     26 C          63.7920   85.5453   16.1014 C.ar    1  UNL1       -0.0002
     27 C          64.3050   86.4533   15.0233 C.ar    1  UNL1       -0.0017
     28 C          64.1357   87.9384   15.1499 C.ar    1  UNL1        0.0102
     29 N          63.1149   91.4855   16.6079 N.1     1  UNL1       -0.1908
     30 C          63.2841   90.0004   16.4812 C.1     1  UNL1        0.1002
@<TRIPOS>BOND
     1    29    30    3
     2    30    23    1
     3    23    24   ar
     4    24    25   ar
     5    25    26   ar
     6    26    27   ar
     7    27    28   ar
     8    28    22    1
     9    22     1    1
    10     1     2   ar
    11     2    13    1
    12    13    14    1
    13    14    15    1
    14    15    16    1
    15    16    17    1
    16    17    18    1
    17    17    19    1
    18     2     3   ar
    19     3     4   ar
    20     4     5   ar
    21     5     6   ar
    22     6     7   ar
    23     7     8   ar
    24     8     9    1
    25     8    10   ar
    26    10    11   ar
    27    11    12    2
    28    28    23   ar
    29    11     1   ar
    30    19    13    1
    31    10     4   ar
    32    18    20    1
    33    18    21    1
@<TRIPOS>MOLECULE
*****
 30 33 0 0 0
SMALL
GASTEIGER

@<TRIPOS>ATOM
      1 N          63.1133   86.5825   12.2986 N.ar    1  UNL1       -0.2644
      2 C          62.5831   85.3052   11.7176 C.ar    1  UNL1        0.2037
      3 N          61.6124   85.3471   10.5749 N.ar    1  UNL1       -0.2147
      4 C          61.1718   86.6663   10.0130 C.ar    1  UNL1        0.0909
      5 C          60.2011   86.7082    8.8703 C.ar    1  UNL1        0.0195
      6 C          59.7605   88.0274    8.3085 C.ar    1  UNL1        0.0039
      7 C          60.2907   89.3046    8.8894 C.ar    1  UNL1        0.0299
      8 C          61.2614   89.2628   10.0322 C.ar    1  UNL1        0.1461
      9 F          61.7915   90.5400   10.6131 F       1  UNL1       -0.2040
     10 C          61.7019   87.9436   10.5940 C.ar    1  UNL1        0.1013
     11 C          62.6727   87.9017   11.7368 C.ar    1  UNL1        0.2667
     12 O          63.2029   89.1789   12.3177 O.2     1  UNL1       -0.2668
     13 N          63.0237   83.9860   12.2795 N.pl3   1  UNL1       -0.2781
     14 C          64.3058   83.3626   11.8128 C.3     1  UNL1        0.0937
     15 C          64.7463   82.0435   12.3747 C.3     1  UNL1        0.0229
     16 C          63.9049   81.3477   13.4032 C.3     1  UNL1        0.0190
     17 C          62.6228   81.9711   13.8698 C.3     1  UNL1        0.0710
     18 N          61.7814   81.2753   14.8983 N.3     1  UNL1       -0.3208
     19 C          62.1823   83.2902   13.3080 C.3     1  UNL1        0.1089
     20 H          62.2282   80.3985   15.1667 H       1  UNL1        0.1189
     21 H          60.8590   81.0813   14.5083 H       1  UNL1        0.1189
     22 C          64.0841   86.5405   13.4414 C.3     1  UNL1        0.1391
     23 C          63.7140   87.8885   15.6313 C.ar    1  UNL1        0.0663
     24 C          63.2135   87.9605   17.0435 C.ar    1  UNL1        0.0100
     25 C          62.5826   86.7566   17.6780 C.ar    1  UNL1        0.0007
     26 C          62.4522   85.4806   16.9002 C.ar    1  UNL1       -0.0002
     27 C          62.9527   85.4086   15.4880 C.ar    1  UNL1       -0.0017
     28 C          63.5836   86.6126   14.8536 C.ar    1  UNL1        0.0102
     29 N          64.9758   90.2963   14.3624 N.1     1  UNL1       -0.1908
     30 C          64.3449   89.0924   14.9969 C.1     1  UNL1        0.1002
@<TRIPOS>BOND
     1    29    30    3
     2    30    23    1
     3    23    24   ar
     4    24    25   ar
     5    25    26   ar
     6    26    27   ar
     7    27    28   ar
     8    28    22    1
     9    22     1    1
    10     1     2   ar
    11     2    13    1
    12    13    14    1
    13    14    15    1
    14    15    16    1
    15    16    17    1
    16    17    18    1
    17    17    19    1
    18     2     3   ar
    19     3     4   ar
    20     4     5   ar
    21     5     6   ar
    22     6     7   ar
    23     7     8   ar
    24     8     9    1
    25     8    10   ar
    26    10    11   ar
    27    11    12    2
    28    28    23   ar
    29    11     1   ar
    30    19    13    1
    31    10     4   ar
    32    18    20    1
    33    18    21    1
@<TRIPOS>MOLECULE
*****
 30 33 0 0 0
SMALL
GASTEIGER

@<TRIPOS>ATOM
      1 N          62.2693   87.2864   11.5465 N.ar    1  UNL1       -0.2644
      2 C          61.9151   88.4262   10.6379 C.ar    1  UNL1        0.2037
      3 N          62.4531   89.7992   10.9125 N.ar    1  UNL1       -0.2147
      4 C          63.3453   90.0324   12.0956 C.ar    1  UNL1        0.0909
      5 C          63.8832   91.4054   12.3701 C.ar    1  UNL1        0.0195
      6 C          64.7753   91.6386   13.5532 C.ar    1  UNL1        0.0039
      7 C          65.1295   90.4988   14.4618 C.ar    1  UNL1        0.0299
      8 C          64.5915   89.1258   14.1872 C.ar    1  UNL1        0.1461
      9 F          64.9456   87.9860   15.0958 F       1  UNL1       -0.2040
     10 C          63.6994   88.8926   13.0041 C.ar    1  UNL1        0.1013
     11 C          63.1614   87.5196   12.7296 C.ar    1  UNL1        0.2667
     12 O          63.5155   86.3798   13.6381 O.2     1  UNL1       -0.2668
     13 N          61.0230   88.1929    9.4548 N.pl3   1  UNL1       -0.2781
     14 C          60.2726   89.3390    8.8438 C.3     1  UNL1        0.0937
     15 C          59.3805   89.1057    7.6607 C.3     1  UNL1        0.0229
     16 C          59.2388   87.7263    7.0886 C.3     1  UNL1        0.0190
     17 C          59.9892   86.5802    7.6996 C.3     1  UNL1        0.0710
     18 N          59.8475   85.2009    7.1276 N.3     1  UNL1       -0.3208
     19 C          60.8813   86.8135    8.8827 C.3     1  UNL1        0.1089
     20 H          59.2074   85.2261    6.3338 H       1  UNL1        0.1189
     21 H          59.4789   84.5728    7.8418 H       1  UNL1        0.1189
     22 C          61.7312   85.9133   11.2719 C.3     1  UNL1        0.1391
     23 C          63.3501   84.0711   10.4143 C.ar    1  UNL1        0.0663
     24 C          64.2022   82.8652   10.6779 C.ar    1  UNL1        0.0100
     25 C          64.2876   82.2954   12.0628 C.ar    1  UNL1        0.0007
     26 C          63.5209   82.9316   13.1842 C.ar    1  UNL1       -0.0002
     27 C          62.6687   84.1376   12.9205 C.ar    1  UNL1       -0.0017
     28 C          62.5834   84.7073   11.5355 C.ar    1  UNL1        0.0102
     29 N          63.1793   85.2107    7.6444 N.1     1  UNL1       -0.1908
     30 C          63.2647   84.6409    9.0293 C.1     1  UNL1        0.1002
@<TRIPOS>BOND
     1    29    30    3
     2    30    23    1
     3    23    24   ar
     4    24    25   ar
     5    25    26   ar
     6    26    27   ar
     7    27    28   ar
     8    28    22    1
     9    22     1    1
    10     1     2   ar
    11     2    13    1
    12    13    14    1
    13    14    15    1
    14    15    16    1
    15    16    17    1
    16    17    18    1
    17    17    19    1
    18     2     3   ar
    19     3     4   ar
    20     4     5   ar
    21     5     6   ar
    22     6     7   ar
    23     7     8   ar
    24     8     9    1
    25     8    10   ar
    26    10    11   ar
    27    11    12    2
    28    28    23   ar
    29    11     1   ar
    30    19    13    1
    31    10     4   ar
    32    18    20    1
    33    18    21    1
@<TRIPOS>MOLECULE
*****
 30 33 0 0 0
SMALL
GASTEIGER

@<TRIPOS>ATOM
      1 N          62.7949   86.7787   11.4358 N.ar    1  UNL1       -0.2644
      2 C          62.5020   85.4750   10.7543 C.ar    1  UNL1        0.2037
      3 N          62.7447   84.1814   11.4738 N.ar    1  UNL1       -0.2147
      4 C          63.2803   84.1916   12.8750 C.ar    1  UNL1        0.0909
      5 C          63.5229   82.8981   13.5946 C.ar    1  UNL1        0.0195
      6 C          64.0585   82.9083   14.9956 C.ar    1  UNL1        0.0039
      7 C          64.3513   84.2121   15.6771 C.ar    1  UNL1        0.0299
      8 C          64.1086   85.5056   14.9576 C.ar    1  UNL1        0.1461
      9 F          64.4015   86.8094   15.6391 F       1  UNL1       -0.2040
     10 C          63.5731   85.4954   13.5565 C.ar    1  UNL1        0.1013
     11 C          63.3304   86.7890   12.8368 C.ar    1  UNL1        0.2667
     12 O          63.6232   88.0927   13.5183 O.2     1  UNL1       -0.2668
     13 N          61.9665   85.4648    9.3531 N.pl3   1  UNL1       -0.2781
     14 C          62.8023   84.9165    8.2347 C.3     1  UNL1        0.0937
     15 C          62.2667   84.9064    6.8336 C.3     1  UNL1        0.0229
     16 C          60.8954   85.4445    6.5510 C.3     1  UNL1        0.0190
     17 C          60.0596   85.9927    7.6694 C.3     1  UNL1        0.0710
     18 N          58.6883   86.5308    7.3867 N.3     1  UNL1       -0.3208
     19 C          60.5952   86.0029    9.0704 C.3     1  UNL1        0.1089
     20 H          58.4886   86.4461    6.3900 H       1  UNL1        0.1189
     21 H          58.6454   87.5127    7.6598 H       1  UNL1        0.1189
     22 C          62.5522   88.0723   10.7161 C.3     1  UNL1        0.1391
     23 C          61.4440   90.4058   10.9928 C.ar    1  UNL1        0.0663
     24 C          60.2487   91.2435   11.3385 C.ar    1  UNL1        0.0100
     25 C          58.9662   90.5854   11.7530 C.ar    1  UNL1        0.0007
     26 C          58.8789   89.0894   11.8219 C.ar    1  UNL1       -0.0002
     27 C          60.0743   88.2517   11.4763 C.ar    1  UNL1       -0.0017
     28 C          61.3568   88.9100   11.0617 C.ar    1  UNL1        0.0102
     29 N          64.0092   91.7222   10.1638 N.1     1  UNL1       -0.1908
     30 C          62.7266   91.0640   10.5783 C.1     1  UNL1        0.1002
@<TRIPOS>BOND
     1    29    30    3
     2    30    23    1
     3    23    24   ar
     4    24    25   ar
     5    25    26   ar
     6    26    27   ar
     7    27    28   ar
     8    28    22    1
     9    22     1    1
    10     1     2   ar
    11     2    13    1
    12    13    14    1
    13    14    15    1
    14    15    16    1
    15    16    17    1
    16    17    18    1
    17    17    19    1
    18     2     3   ar
    19     3     4   ar
    20     4     5   ar
    21     5     6   ar
    22     6     7   ar
    23     7     8   ar
    24     8     9    1
    25     8    10   ar
    26    10    11   ar
    27    11    12    2
    28    28    23   ar
    29    11     1   ar
    30    19    13    1
    31    10     4   ar
    32    18    20    1
    33    18    21    1
