@<TRIPOS>MOLECULE
*****
 35 39 0 0 0
SMALL
GASTEIGER

@<TRIPOS>ATOM
      1 C          64.3560   88.9351   13.5553 C.ar    1  UNL1        0.1632
      2 N          63.7727   89.5344   12.3101 N.ar    1  UNL1       -0.2310
      3 C          64.2258   90.8867   11.8452 C.ar    1  UNL1        0.0620
      4 C          65.2622   91.6396   12.6256 C.ar    1  UNL1        0.0391
      5 C          65.8456   91.0402   13.8708 C.ar    1  UNL1        0.1318
      6 N          65.3925   89.6880   14.3356 N.ar    1  UNL1       -0.2122
      7 C          65.7154   92.9918   12.1607 C.3     1  UNL1        0.1032
      8 N          65.1320   93.5912   10.9156 N.3     1  UNL1       -0.2655
      9 C          64.0956   92.8383   10.1352 C.3     1  UNL1        0.0788
     10 C          63.6425   91.4860   10.6001 C.3     1  UNL1        0.0630
     11 N          66.8820   91.7931   14.6511 N.pl3   1  UNL1       -0.2900
     12 C          68.2876   91.8865   14.1358 C.3     1  UNL1        0.1242
     13 C          69.3240   92.6394   14.9162 C.3     1  UNL1        0.1636
     14 O          68.9549   93.2989   16.2118 O.3     1  UNL1       -0.3502
     15 C          67.5493   93.2055   16.7272 C.3     1  UNL1        0.1618
     16 C          66.5128   92.4526   15.9469 C.3     1  UNL1        0.1038
     17 C          65.1072   92.3592   16.4622 C.3     1  UNL1        0.0241
     18 C          62.9967   84.8783   14.9498 C.ar    1  UNL1        0.0516
     19 C          63.0024   85.2051   13.4859 C.ar    1  UNL1        0.0148
     20 C          63.4555   86.5573   13.0210 C.ar    1  UNL1        0.0043
     21 C          63.9029   87.5828   14.0202 C.ar    1  UNL1        0.0359
     22 C          63.8972   87.2560   15.4841 C.ar    1  UNL1        0.0043
     23 C          63.4441   85.9038   15.9489 C.ar    1  UNL1        0.0148
     24 N          61.7865   81.0994   14.8779 N.am    1  UNL1       -0.2887
     25 C          62.2396   82.4516   14.4130 C.2     1  UNL1        0.3045
     26 O          62.3886   82.7295   12.9465 O.2     1  UNL1       -0.2525
     27 N          62.5436   83.5260   15.4147 N.am    1  UNL1       -0.2683
     28 H          61.6886   80.9170   15.8404 H       1  UNL1        0.1510
     29 H          62.4458   83.3436   16.3772 H       1  UNL1        0.1564
     30 C          62.5189   79.6236   12.8690 C.3     1  UNL1        0.0230
     31 C          61.4824   80.0250   13.8762 C.3     1  UNL1        0.0910
     32 C          65.5852   94.9435   10.4507 C.3     1  UNL1        0.1175
     33 C          64.9413   96.2924   10.3245 C.3     1  UNL1        0.1606
     34 O          66.2259   96.8559    9.7933 O.3     1  UNL1       -0.3507
     35 C          66.8698   95.5070    9.9194 C.3     1  UNL1        0.1606
@<TRIPOS>BOND
     1    30    31    1
     2    31    24    1
     3    24    25   am
     4    25    26    2
     5    25    27   am
     6    27    18    1
     7    18    19   ar
     8    19    20   ar
     9    20    21   ar
    10    21     1    1
    11     1     2   ar
    12     2     3   ar
    13     3     4   ar
    14     4     5   ar
    15     5    11    1
    16    11    12    1
    17    12    13    1
    18    13    14    1
    19    14    15    1
    20    15    16    1
    21    16    17    1
    22     5     6   ar
    23     4     7    1
    24     7     8    1
    25     8    32    1
    26    32    33    1
    27    33    34    1
    28    34    35    1
    29     8     9    1
    30     9    10    1
    31    21    22   ar
    32    22    23   ar
    33    23    18   ar
    34     6     1   ar
    35    35    32    1
    36    10     3    1
    37    16    11    1
    38    24    28    1
    39    27    29    1
@<TRIPOS>MOLECULE
*****
 35 39 0 0 0
SMALL
GASTEIGER

@<TRIPOS>ATOM
      1 C          60.5891   92.4297    2.7912 C.ar    1  UNL1        0.1632
      2 N          62.0455   92.5199    2.4438 N.ar    1  UNL1       -0.2310
      3 C          62.4846   93.3204    1.2536 C.ar    1  UNL1        0.0620
      4 C          61.4671   94.0306    0.4108 C.ar    1  UNL1        0.0391
      5 C          60.0107   93.9404    0.7582 C.ar    1  UNL1        0.1318
      6 N          59.5717   93.1400    1.9484 N.ar    1  UNL1       -0.2122
      7 C          61.9061   94.8311   -0.7794 C.3     1  UNL1        0.1032
      8 N          63.3625   94.9212   -1.1267 N.3     1  UNL1       -0.2655
      9 C          64.3800   94.2109   -0.2839 C.3     1  UNL1        0.0788
     10 C          63.9410   93.4105    0.9063 C.3     1  UNL1        0.0630
     11 N          58.9932   94.6507   -0.0846 N.pl3   1  UNL1       -0.2900
     12 C          58.8848   96.1457   -0.0287 C.3     1  UNL1        0.1242
     13 C          57.8674   96.8560   -0.8715 C.3     1  UNL1        0.1636
     14 O          56.9584   96.0712   -1.7703 O.3     1  UNL1       -0.3502
     15 C          57.0668   94.5762   -1.8263 C.3     1  UNL1        0.1618
     16 C          58.0842   93.8659   -0.9835 C.3     1  UNL1        0.1038
     17 C          58.1926   92.3709   -1.0394 C.3     1  UNL1        0.0241
     18 C          59.2721   90.0284    6.3618 C.ar    1  UNL1        0.0516
     19 C          60.7156   90.0359    5.9541 C.ar    1  UNL1        0.0148
     20 C          61.1546   90.8364    4.7639 C.ar    1  UNL1        0.0043
     21 C          60.1501   91.6293    3.9814 C.ar    1  UNL1        0.0359
     22 C          58.7066   91.6218    4.3891 C.ar    1  UNL1        0.0043
     23 C          58.2676   90.8214    5.5793 C.ar    1  UNL1        0.0148
     24 N          59.3454   88.1874    9.8768 N.am    1  UNL1       -0.2887
     25 C          59.7844   88.9878    8.6866 C.2     1  UNL1        0.3045
     26 O          61.1748   89.5481    8.6310 O.2     1  UNL1       -0.2525
     27 N          58.8330   89.2280    7.5520 N.am    1  UNL1       -0.2683
     28 H          58.4329   87.8197    9.9133 H       1  UNL1        0.1510
     29 H          57.9205   88.8603    7.5885 H       1  UNL1        0.1564
     30 C          61.2824   86.8190   10.9376 C.3     1  UNL1        0.0230
     31 C          60.2967   87.9472   11.0114 C.3     1  UNL1        0.0910
     32 C          63.8016   95.7217   -2.3170 C.3     1  UNL1        0.1175
     33 C          65.1026   96.3075   -2.7798 C.3     1  UNL1        0.1606
     34 O          64.4225   96.8537   -4.0001 O.3     1  UNL1       -0.3507
     35 C          63.1215   96.2679   -3.5373 C.3     1  UNL1        0.1606
@<TRIPOS>BOND
     1    30    31    1
     2    31    24    1
     3    24    25   am
     4    25    26    2
     5    25    27   am
     6    27    18    1
     7    18    19   ar
     8    19    20   ar
     9    20    21   ar
    10    21     1    1
    11     1     2   ar
    12     2     3   ar
    13     3     4   ar
    14     4     5   ar
    15     5    11    1
    16    11    12    1
    17    12    13    1
    18    13    14    1
    19    14    15    1
    20    15    16    1
    21    16    17    1
    22     5     6   ar
    23     4     7    1
    24     7     8    1
    25     8    32    1
    26    32    33    1
    27    33    34    1
    28    34    35    1
    29     8     9    1
    30     9    10    1
    31    21    22   ar
    32    22    23   ar
    33    23    18   ar
    34     6     1   ar
    35    35    32    1
    36    10     3    1
    37    16    11    1
    38    24    28    1
    39    27    29    1
@<TRIPOS>MOLECULE
*****
 35 39 0 0 0
SMALL
GASTEIGER

@<TRIPOS>ATOM
      1 C          60.7139   92.9417    1.5684 C.ar    1  UNL1        0.1632
      2 N          62.1331   93.3443    1.2969 N.ar    1  UNL1       -0.2310
      3 C          62.4986   93.9619   -0.0203 C.ar    1  UNL1        0.0620
      4 C          61.4449   94.1769   -1.0660 C.ar    1  UNL1        0.0391
      5 C          60.0257   93.7743   -0.7945 C.ar    1  UNL1        0.1318
      6 N          59.6602   93.1567    0.5227 N.ar    1  UNL1       -0.2122
      7 C          61.8104   94.7945   -2.3832 C.3     1  UNL1        0.1032
      8 N          63.2296   95.1970   -2.6547 N.3     1  UNL1       -0.2655
      9 C          64.2833   94.9821   -1.6090 C.3     1  UNL1        0.0788
     10 C          63.9178   94.3645   -0.2918 C.3     1  UNL1        0.0630
     11 N          58.9719   93.9892   -1.8402 N.pl3   1  UNL1       -0.2900
     12 C          58.7293   92.9424   -2.8867 C.3     1  UNL1        0.1242
     13 C          57.6756   93.1574   -3.9324 C.3     1  UNL1        0.1636
     14 O          56.8645   94.4192   -3.9316 O.3     1  UNL1       -0.3502
     15 C          57.1072   95.4661   -2.8851 C.3     1  UNL1        0.1618
     16 C          58.1609   95.2511   -1.8394 C.3     1  UNL1        0.1038
     17 C          58.4036   96.2979   -0.7928 C.3     1  UNL1        0.0241
     18 C          59.6171   91.0890    5.5199 C.ar    1  UNL1        0.0516
     19 C          58.5688   91.7788    4.6982 C.ar    1  UNL1        0.0148
     20 C          58.9343   92.3963    3.3811 C.ar    1  UNL1        0.0043
     21 C          60.3483   92.3241    2.8856 C.ar    1  UNL1        0.0359
     22 C          61.3967   91.6344    3.7072 C.ar    1  UNL1        0.0043
     23 C          61.0311   91.0168    5.0244 C.ar    1  UNL1        0.0148
     24 N          59.0171   88.3725    8.3501 N.am    1  UNL1       -0.2887
     25 C          59.3826   88.9901    7.0330 C.2     1  UNL1        0.3045
     26 O          59.8792   88.1263    5.9116 O.2     1  UNL1       -0.2525
     27 N          59.2516   90.4714    6.8371 N.am    1  UNL1       -0.2683
     28 H          58.6911   88.9394    9.0861 H       1  UNL1        0.1510
     29 H          58.9256   91.0384    7.5731 H       1  UNL1        0.1564
     30 C          60.4826   86.2941    8.8814 C.3     1  UNL1        0.0230
     31 C          59.1481   86.8911    8.5460 C.3     1  UNL1        0.0910
     32 C          63.5952   95.8146   -3.9719 C.3     1  UNL1        0.1175
     33 C          64.7953   95.7642   -4.8703 C.3     1  UNL1        0.1606
     34 O          64.1122   96.6880   -5.8347 O.3     1  UNL1       -0.3507
     35 C          62.9121   96.7384   -4.9363 C.3     1  UNL1        0.1606
@<TRIPOS>BOND
     1    30    31    1
     2    31    24    1
     3    24    25   am
     4    25    26    2
     5    25    27   am
     6    27    18    1
     7    18    19   ar
     8    19    20   ar
     9    20    21   ar
    10    21     1    1
    11     1     2   ar
    12     2     3   ar
    13     3     4   ar
    14     4     5   ar
    15     5    11    1
    16    11    12    1
    17    12    13    1
    18    13    14    1
    19    14    15    1
    20    15    16    1
    21    16    17    1
    22     5     6   ar
    23     4     7    1
    24     7     8    1
    25     8    32    1
    26    32    33    1
    27    33    34    1
    28    34    35    1
    29     8     9    1
    30     9    10    1
    31    21    22   ar
    32    22    23   ar
    33    23    18   ar
    34     6     1   ar
    35    35    32    1
    36    10     3    1
    37    16    11    1
    38    24    28    1
    39    27    29    1
@<TRIPOS>MOLECULE
*****
 35 39 0 0 0
SMALL
GASTEIGER

@<TRIPOS>ATOM
      1 C          60.3598   93.2713    0.3928 C.ar    1  UNL1        0.1632
      2 N          59.0103   93.6792   -0.1195 N.ar    1  UNL1       -0.2310
      3 C          58.8753   94.2647   -1.4939 C.ar    1  UNL1        0.0620
      4 C          60.0899   94.4423   -2.3561 C.ar    1  UNL1        0.0391
      5 C          61.4395   94.0344   -1.8438 C.ar    1  UNL1        0.1318
      6 N          61.5744   93.4489   -0.4694 N.ar    1  UNL1       -0.2122
      7 C          59.9549   95.0277   -3.7305 C.3     1  UNL1        0.1032
      8 N          58.6054   95.4356   -4.2427 N.3     1  UNL1       -0.2655
      9 C          57.3909   95.2580   -3.3805 C.3     1  UNL1        0.0788
     10 C          57.5258   94.6726   -2.0062 C.3     1  UNL1        0.0630
     11 N          62.6540   94.2119   -2.7060 N.pl3   1  UNL1       -0.2900
     12 C          63.0736   93.1198   -3.6446 C.3     1  UNL1        0.1242
     13 C          64.2882   93.2974   -4.5068 C.3     1  UNL1        0.1636
     14 O          65.0831   94.5671   -4.4303 O.3     1  UNL1       -0.3502
     15 C          64.6635   95.6593   -3.4916 C.3     1  UNL1        0.1618
     16 C          63.4489   95.4817   -2.6294 C.3     1  UNL1        0.1038
     17 C          63.0293   96.5738   -1.6908 C.3     1  UNL1        0.0241
     18 C          60.7648   91.5150    4.5160 C.ar    1  UNL1        0.0516
     19 C          59.4791   92.1671    4.1015 C.ar    1  UNL1        0.0148
     20 C          59.3442   92.7525    2.7271 C.ar    1  UNL1        0.0043
     21 C          60.4949   92.6858    1.7672 C.ar    1  UNL1        0.0359
     22 C          61.7805   92.0338    2.1817 C.ar    1  UNL1        0.0043
     23 C          61.9155   91.4483    3.5561 C.ar    1  UNL1        0.0148
     24 N          60.0237   89.3530    7.7605 N.am    1  UNL1       -0.2887
     25 C          59.8887   89.9385    6.3861 C.2     1  UNL1        0.3045
     26 O          58.7426   89.5330    5.5074 O.2     1  UNL1       -0.2525
     27 N          60.8998   90.9295    5.8905 N.am    1  UNL1       -0.2683
     28 H          60.7759   89.6192    8.3373 H       1  UNL1        0.1510
     29 H          61.6520   91.1956    6.4672 H       1  UNL1        0.1564
     30 C          59.3059   86.8927    8.1866 C.3     1  UNL1        0.0230
     31 C          59.0126   88.3621    8.2562 C.3     1  UNL1        0.0910
     32 C          58.4704   96.0211   -5.6172 C.3     1  UNL1        0.1175
     33 C          57.3186   96.3927   -6.5032 C.3     1  UNL1        0.1606
     34 O          58.2794   96.8490   -7.5609 O.3     1  UNL1       -0.3507
     35 C          59.4313   96.4774   -6.6748 C.3     1  UNL1        0.1606
@<TRIPOS>BOND
     1    30    31    1
     2    31    24    1
     3    24    25   am
     4    25    26    2
     5    25    27   am
     6    27    18    1
     7    18    19   ar
     8    19    20   ar
     9    20    21   ar
    10    21     1    1
    11     1     2   ar
    12     2     3   ar
    13     3     4   ar
    14     4     5   ar
    15     5    11    1
    16    11    12    1
    17    12    13    1
    18    13    14    1
    19    14    15    1
    20    15    16    1
    21    16    17    1
    22     5     6   ar
    23     4     7    1
    24     7     8    1
    25     8    32    1
    26    32    33    1
    27    33    34    1
    28    34    35    1
    29     8     9    1
    30     9    10    1
    31    21    22   ar
    32    22    23   ar
    33    23    18   ar
    34     6     1   ar
    35    35    32    1
    36    10     3    1
    37    16    11    1
    38    24    28    1
    39    27    29    1
@<TRIPOS>MOLECULE
*****
 35 39 0 0 0
SMALL
GASTEIGER

@<TRIPOS>ATOM
      1 C          59.7752   92.8102    2.1125 C.ar    1  UNL1        0.1632
      2 N          58.6050   92.8305    1.1742 N.ar    1  UNL1       -0.2310
      3 C          58.7202   93.5187   -0.1537 C.ar    1  UNL1        0.0620
      4 C          60.0056   94.1866   -0.5432 C.ar    1  UNL1        0.0391
      5 C          61.1758   94.1663    0.3951 C.ar    1  UNL1        0.1318
      6 N          61.0605   93.4781    1.7229 N.ar    1  UNL1       -0.2122
      7 C          60.1209   94.8748   -1.8710 C.3     1  UNL1        0.1032
      8 N          58.9507   94.8951   -2.8093 N.3     1  UNL1       -0.2655
      9 C          57.6654   94.2272   -2.4197 C.3     1  UNL1        0.0788
     10 C          57.5501   93.5390   -1.0919 C.3     1  UNL1        0.0630
     11 N          62.4612   94.8341    0.0055 N.pl3   1  UNL1       -0.2900
     12 C          63.3963   94.1593   -0.9536 C.3     1  UNL1        0.1242
     13 C          64.6817   94.8272   -1.3432 C.3     1  UNL1        0.1636
     14 O          65.0319   96.1699   -0.7736 O.3     1  UNL1       -0.3502
     15 C          64.0967   96.8448    0.1856 C.3     1  UNL1        0.1618
     16 C          62.8114   96.1769    0.5752 C.3     1  UNL1        0.1038
     17 C          61.8762   96.8517    1.5343 C.3     1  UNL1        0.0241
     18 C          59.4296   90.7457    6.0960 C.ar    1  UNL1        0.0516
     19 C          60.7686   90.8763    5.4326 C.ar    1  UNL1        0.0148
     20 C          60.8837   91.5644    4.1047 C.ar    1  UNL1        0.0043
     21 C          59.6599   92.1220    3.4403 C.ar    1  UNL1        0.0359
     22 C          58.3210   91.9915    4.1038 C.ar    1  UNL1        0.0043
     23 C          58.2058   91.3033    5.4316 C.ar    1  UNL1        0.0148
     24 N          59.5215   87.9091    8.8700 N.am    1  UNL1       -0.2887
     25 C          59.6367   88.5973    7.5423 C.2     1  UNL1        0.3045
     26 O          60.0741   87.8254    6.3328 O.2     1  UNL1       -0.2525
     27 N          59.3144   90.0575    7.4238 N.am    1  UNL1       -0.2683
     28 H          59.2344   88.4158    9.6638 H       1  UNL1        0.1510
     29 H          59.0273   90.5642    8.2176 H       1  UNL1        0.1564
     30 C          61.2676   86.0058    9.1502 C.3     1  UNL1        0.0230
     31 C          59.8437   86.4490    8.9885 C.3     1  UNL1        0.0910
     32 C          59.0660   95.5833   -4.1371 C.3     1  UNL1        0.1175
     33 C          58.1109   95.9196   -5.2438 C.3     1  UNL1        0.1606
     34 O          59.2288   96.5565   -6.0150 O.3     1  UNL1       -0.3507
     35 C          60.1839   96.2202   -4.9083 C.3     1  UNL1        0.1606
@<TRIPOS>BOND
     1    30    31    1
     2    31    24    1
     3    24    25   am
     4    25    26    2
     5    25    27   am
     6    27    18    1
     7    18    19   ar
     8    19    20   ar
     9    20    21   ar
    10    21     1    1
    11     1     2   ar
    12     2     3   ar
    13     3     4   ar
    14     4     5   ar
    15     5    11    1
    16    11    12    1
    17    12    13    1
    18    13    14    1
    19    14    15    1
    20    15    16    1
    21    16    17    1
    22     5     6   ar
    23     4     7    1
    24     7     8    1
    25     8    32    1
    26    32    33    1
    27    33    34    1
    28    34    35    1
    29     8     9    1
    30     9    10    1
    31    21    22   ar
    32    22    23   ar
    33    23    18   ar
    34     6     1   ar
    35    35    32    1
    36    10     3    1
    37    16    11    1
    38    24    28    1
    39    27    29    1
@<TRIPOS>MOLECULE
*****
 35 39 0 0 0
SMALL
GASTEIGER

@<TRIPOS>ATOM
      1 C          63.6609   86.6164   12.7525 C.ar    1  UNL1        0.1632
      2 N          63.9514   85.3324   13.4713 N.ar    1  UNL1       -0.2310
      3 C          63.6476   84.0191   12.8131 C.ar    1  UNL1        0.0620
      4 C          63.0533   83.9900   11.4361 C.ar    1  UNL1        0.0391
      5 C          62.7629   85.2742   10.7173 C.ar    1  UNL1        0.1318
      6 N          63.0666   86.5873   11.3755 N.ar    1  UNL1       -0.2122
      7 C          62.7496   82.6768   10.7780 C.3     1  UNL1        0.1032
      8 N          63.0401   81.3927   11.4968 N.3     1  UNL1       -0.2655
      9 C          63.6343   81.4218   12.8737 C.3     1  UNL1        0.0788
     10 C          63.9381   82.7350   13.5319 C.3     1  UNL1        0.0630
     11 N          62.1686   85.2451    9.3404 N.pl3   1  UNL1       -0.2900
     12 C          62.8427   84.4678    8.2489 C.3     1  UNL1        0.1242
     13 C          62.2485   84.4387    6.8719 C.3     1  UNL1        0.1636
     14 O          60.9802   85.1868    6.5864 O.3     1  UNL1       -0.3502
     15 C          60.3060   85.9642    7.6780 C.3     1  UNL1        0.1618
     16 C          60.9002   85.9933    9.0549 C.3     1  UNL1        0.1038
     17 C          60.2261   86.7706   10.1464 C.3     1  UNL1        0.0241
     18 C          64.5721   90.5562   14.7268 C.ar    1  UNL1        0.0516
     19 C          64.0630   90.5242   13.3162 C.ar    1  UNL1        0.0148
     20 C          63.7593   89.2110   12.6581 C.ar    1  UNL1        0.0043
     21 C          63.9646   87.9297   13.4106 C.ar    1  UNL1        0.0359
     22 C          64.4737   87.9617   14.8212 C.ar    1  UNL1        0.0043
     23 C          64.7775   89.2749   15.4793 C.ar    1  UNL1        0.0148
     24 N          66.5835   93.7111   16.0501 N.am    1  UNL1       -0.2887
     25 C          66.2797   92.3979   15.3920 C.2     1  UNL1        0.3045
     26 O          67.3798   91.6130   14.7408 O.2     1  UNL1       -0.2525
     27 N          64.8759   91.8695   15.3850 N.am    1  UNL1       -0.2683
     28 H          65.8615   94.2262   16.4774 H       1  UNL1        0.1510
     29 H          64.1539   92.3846   15.8123 H       1  UNL1        0.1564
     30 C          69.1466   93.2882   16.0898 C.3     1  UNL1        0.0230
     31 C          67.9873   94.2395   16.0571 C.3     1  UNL1        0.0910
     32 C          62.7363   80.0794   10.8386 C.3     1  UNL1        0.1175
     33 C          62.6017   79.6099    9.4204 C.3     1  UNL1        0.1606
     34 O          62.3067   78.2223    9.9078 O.3     1  UNL1       -0.3507
     35 C          62.4413   78.6918   11.3260 C.3     1  UNL1        0.1606
@<TRIPOS>BOND
     1    30    31    1
     2    31    24    1
     3    24    25   am
     4    25    26    2
     5    25    27   am
     6    27    18    1
     7    18    19   ar
     8    19    20   ar
     9    20    21   ar
    10    21     1    1
    11     1     2   ar
    12     2     3   ar
    13     3     4   ar
    14     4     5   ar
    15     5    11    1
    16    11    12    1
    17    12    13    1
    18    13    14    1
    19    14    15    1
    20    15    16    1
    21    16    17    1
    22     5     6   ar
    23     4     7    1
    24     7     8    1
    25     8    32    1
    26    32    33    1
    27    33    34    1
    28    34    35    1
    29     8     9    1
    30     9    10    1
    31    21    22   ar
    32    22    23   ar
    33    23    18   ar
    34     6     1   ar
    35    35    32    1
    36    10     3    1
    37    16    11    1
    38    24    28    1
    39    27    29    1
@<TRIPOS>MOLECULE
*****
 35 39 0 0 0
SMALL
GASTEIGER

@<TRIPOS>ATOM
      1 C          64.0043   88.0438   13.8090 C.ar    1  UNL1        0.1632
      2 N          64.0265   86.9827   14.8690 N.ar    1  UNL1       -0.2310
      3 C          63.4793   85.6173   14.5749 C.ar    1  UNL1        0.0620
      4 C          62.9100   85.3131   13.2209 C.ar    1  UNL1        0.0391
      5 C          62.8878   86.3743   12.1609 C.ar    1  UNL1        0.1318
      6 N          63.4350   87.7396   12.4550 N.ar    1  UNL1       -0.2122
      7 C          62.3628   83.9478   12.9268 C.3     1  UNL1        0.1032
      8 N          62.3850   82.8867   13.9868 N.3     1  UNL1       -0.2655
      9 C          62.9543   83.1909   15.3408 C.3     1  UNL1        0.0788
     10 C          63.5015   84.5562   15.6349 C.3     1  UNL1        0.0630
     11 N          62.3185   86.0701   10.8069 N.pl3   1  UNL1       -0.2900
     12 C          63.0251   85.1124    9.8941 C.3     1  UNL1        0.1242
     13 C          62.4558   84.8082    8.5401 C.3     1  UNL1        0.1636
     14 O          61.1798   85.4618    8.0989 O.3     1  UNL1       -0.3502
     15 C          60.4731   86.4195    9.0118 C.3     1  UNL1        0.1618
     16 C          61.0424   86.7237   10.3658 C.3     1  UNL1        0.1038
     17 C          60.3357   87.6815   11.2787 C.3     1  UNL1        0.0241
     18 C          65.6459   92.1398   14.6910 C.ar    1  UNL1        0.0516
     19 C          65.5611   91.6550   13.2741 C.ar    1  UNL1        0.0148
     20 C          65.0139   90.2896   12.9801 C.ar    1  UNL1        0.0043
     21 C          64.5515   89.4092   14.1031 C.ar    1  UNL1        0.0359
     22 C          64.6364   89.8940   15.5200 C.ar    1  UNL1        0.0043
     23 C          65.1835   91.2593   15.8139 C.ar    1  UNL1        0.0148
     24 N          68.1172   95.0185   15.8556 N.am    1  UNL1       -0.2887
     25 C          67.5700   93.6532   15.5615 C.2     1  UNL1        0.3045
     26 O          68.3996   92.4358   15.8440 O.2     1  UNL1       -0.2525
     27 N          66.1931   93.5052   14.9850 N.am    1  UNL1       -0.2683
     28 H          67.5726   95.8174   15.6702 H       1  UNL1        0.1510
     29 H          65.6485   94.3041   14.7996 H       1  UNL1        0.1564
     30 C          70.6889   94.7148   15.6458 C.3     1  UNL1        0.0230
     31 C          69.4940   95.1665   16.4321 C.3     1  UNL1        0.0910
     32 C          61.8378   81.5213   13.6927 C.3     1  UNL1        0.1175
     33 C          62.3112   80.3361   12.9046 C.3     1  UNL1        0.1606
     34 O          61.0640   79.5904   13.2769 O.3     1  UNL1       -0.3507
     35 C          60.5906   80.7757   14.0650 C.3     1  UNL1        0.1606
@<TRIPOS>BOND
     1    30    31    1
     2    31    24    1
     3    24    25   am
     4    25    26    2
     5    25    27   am
     6    27    18    1
     7    18    19   ar
     8    19    20   ar
     9    20    21   ar
    10    21     1    1
    11     1     2   ar
    12     2     3   ar
    13     3     4   ar
    14     4     5   ar
    15     5    11    1
    16    11    12    1
    17    12    13    1
    18    13    14    1
    19    14    15    1
    20    15    16    1
    21    16    17    1
    22     5     6   ar
    23     4     7    1
    24     7     8    1
    25     8    32    1
    26    32    33    1
    27    33    34    1
    28    34    35    1
    29     8     9    1
    30     9    10    1
    31    21    22   ar
    32    22    23   ar
    33    23    18   ar
    34     6     1   ar
    35    35    32    1
    36    10     3    1
    37    16    11    1
    38    24    28    1
    39    27    29    1
@<TRIPOS>MOLECULE
*****
 35 39 0 0 0
SMALL
GASTEIGER

@<TRIPOS>ATOM
      1 C          60.9037   89.0785    8.5538 C.ar    1  UNL1        0.1632
      2 N          60.8407   87.5844    8.6703 N.ar    1  UNL1       -0.2310
      3 C          61.4515   86.8981    9.8561 C.ar    1  UNL1        0.0620
      4 C          62.1252   87.7061   10.9254 C.ar    1  UNL1        0.0391
      5 C          62.1881   89.2003   10.8089 C.ar    1  UNL1        0.1318
      6 N          61.5773   89.8865    9.6231 N.ar    1  UNL1       -0.2122
      7 C          62.7360   87.0198   12.1111 C.3     1  UNL1        0.1032
      8 N          62.6730   85.5257   12.2276 N.3     1  UNL1       -0.2655
      9 C          61.9994   84.7178   11.1582 C.3     1  UNL1        0.0788
     10 C          61.3886   85.4040    9.9725 C.3     1  UNL1        0.0630
     11 N          62.8618   90.0082   11.8782 N.pl3   1  UNL1       -0.2900
     12 C          62.6701   89.6496   13.3220 C.3     1  UNL1        0.1242
     13 C          63.3437   90.4575   14.3913 C.3     1  UNL1        0.1636
     14 O          64.2091   91.6240   14.0168 O.3     1  UNL1       -0.3502
     15 C          64.4009   91.9827   12.5730 C.3     1  UNL1        0.1618
     16 C          63.7272   91.1747   11.5037 C.3     1  UNL1        0.1038
     17 C          63.9189   91.5333   10.0599 C.3     1  UNL1        0.0241
     18 C          59.0715   91.1374    4.9965 C.ar    1  UNL1        0.0516
     19 C          60.5521   91.2107    5.2251 C.ar    1  UNL1        0.0148
     20 C          61.1628   90.5244    6.4108 C.ar    1  UNL1        0.0043
     21 C          60.2929   89.7648    7.3680 C.ar    1  UNL1        0.0359
     22 C          58.8122   89.6915    7.1395 C.ar    1  UNL1        0.0043
     23 C          58.2015   90.3778    5.9538 C.ar    1  UNL1        0.0148
     24 N          58.7291   93.1839    1.6136 N.am    1  UNL1       -0.2887
     25 C          59.3398   92.4976    2.7993 C.2     1  UNL1        0.3045
     26 O          60.8296   92.4853    2.9737 O.2     1  UNL1       -0.2525
     27 N          58.4607   91.8236    3.8107 N.am    1  UNL1       -0.2683
     28 H          57.7513   93.1920    1.4991 H       1  UNL1        0.1510
     29 H          57.4829   91.8317    3.6963 H       1  UNL1        0.1564
     30 C          60.2537   93.0522   -0.4860 C.3     1  UNL1        0.0230
     31 C          59.6081   93.8579    0.6021 C.3     1  UNL1        0.0910
     32 C          63.2838   84.8394   13.4134 C.3     1  UNL1        0.1175
     33 C          64.6183   84.2222   13.7105 C.3     1  UNL1        0.1606
     34 O          64.1476   83.8689   15.0902 O.3     1  UNL1       -0.3507
     35 C          62.8132   84.4861   14.7931 C.3     1  UNL1        0.1606
@<TRIPOS>BOND
     1    30    31    1
     2    31    24    1
     3    24    25   am
     4    25    26    2
     5    25    27   am
     6    27    18    1
     7    18    19   ar
     8    19    20   ar
     9    20    21   ar
    10    21     1    1
    11     1     2   ar
    12     2     3   ar
    13     3     4   ar
    14     4     5   ar
    15     5    11    1
    16    11    12    1
    17    12    13    1
    18    13    14    1
    19    14    15    1
    20    15    16    1
    21    16    17    1
    22     5     6   ar
    23     4     7    1
    24     7     8    1
    25     8    32    1
    26    32    33    1
    27    33    34    1
    28    34    35    1
    29     8     9    1
    30     9    10    1
    31    21    22   ar
    32    22    23   ar
    33    23    18   ar
    34     6     1   ar
    35    35    32    1
    36    10     3    1
    37    16    11    1
    38    24    28    1
    39    27    29    1
@<TRIPOS>MOLECULE
*****
 35 39 0 0 0
SMALL
GASTEIGER

@<TRIPOS>ATOM
      1 C          64.0107   90.7545   11.5599 C.ar    1  UNL1        0.1632
      2 N          64.4281   90.4580   12.9697 N.ar    1  UNL1       -0.2310
      3 C          65.4347   91.3347   13.6541 C.ar    1  UNL1        0.0620
      4 C          66.0238   92.5079   12.9285 C.ar    1  UNL1        0.0391
      5 C          65.6063   92.8044   11.5185 C.ar    1  UNL1        0.1318
      6 N          64.5998   91.9277   10.8343 N.ar    1  UNL1       -0.2122
      7 C          67.0303   93.3846   13.6128 C.3     1  UNL1        0.1032
      8 N          67.4477   93.0880   15.0226 N.3     1  UNL1       -0.2655
      9 C          66.8586   91.9148   15.7482 C.3     1  UNL1        0.0788
     10 C          65.8521   91.0381   15.0640 C.3     1  UNL1        0.0630
     11 N          66.1955   93.9776   10.7929 N.pl3   1  UNL1       -0.2900
     12 C          65.6336   95.3517   11.0080 C.3     1  UNL1        0.1242
     13 C          66.2227   96.5249   10.2824 C.3     1  UNL1        0.1636
     14 O          67.3737   96.3241    9.3418 O.3     1  UNL1       -0.3502
     15 C          67.9357   94.9500    9.1267 C.3     1  UNL1        0.1618
     16 C          67.3465   93.7768    9.8523 C.3     1  UNL1        0.1038
     17 C          67.9084   92.4027    9.6373 C.3     1  UNL1        0.0241
     18 C          60.9910   88.1245    9.5069 C.ar    1  UNL1        0.0516
     19 C          61.8681   87.5595   10.5846 C.ar    1  UNL1        0.0148
     20 C          62.8746   88.4361   11.2689 C.ar    1  UNL1        0.0043
     21 C          63.0041   89.8778   10.8755 C.ar    1  UNL1        0.0359
     22 C          62.1270   90.4429    9.7978 C.ar    1  UNL1        0.0043
     23 C          61.1205   89.5662    9.1135 C.ar    1  UNL1        0.0148
     24 N          59.4361   85.2940    7.2002 N.am    1  UNL1       -0.2887
     25 C          60.4426   86.1707    7.8845 C.2     1  UNL1        0.3045
     26 O          61.9074   85.9703    7.6308 O.2     1  UNL1       -0.2525
     27 N          59.9844   87.2478    8.8226 N.am    1  UNL1       -0.2683
     28 H          58.4748   85.4256    7.3667 H       1  UNL1        0.1510
     29 H          59.0231   87.3793    8.9891 H       1  UNL1        0.1564
     30 C          61.3274   84.1653    5.8221 C.3     1  UNL1        0.0230
     31 C          59.8944   84.2169    6.2622 C.3     1  UNL1        0.0910
     32 C          68.4543   93.9647   15.7070 C.3     1  UNL1        0.1175
     33 C          69.6228   93.7274   16.6172 C.3     1  UNL1        0.1606
     34 O          69.8779   95.2044   16.6748 O.3     1  UNL1       -0.3507
     35 C          68.7094   95.4417   15.7646 C.3     1  UNL1        0.1606
@<TRIPOS>BOND
     1    30    31    1
     2    31    24    1
     3    24    25   am
     4    25    26    2
     5    25    27   am
     6    27    18    1
     7    18    19   ar
     8    19    20   ar
     9    20    21   ar
    10    21     1    1
    11     1     2   ar
    12     2     3   ar
    13     3     4   ar
    14     4     5   ar
    15     5    11    1
    16    11    12    1
    17    12    13    1
    18    13    14    1
    19    14    15    1
    20    15    16    1
    21    16    17    1
    22     5     6   ar
    23     4     7    1
    24     7     8    1
    25     8    32    1
    26    32    33    1
    27    33    34    1
    28    34    35    1
    29     8     9    1
    30     9    10    1
    31    21    22   ar
    32    22    23   ar
    33    23    18   ar
    34     6     1   ar
    35    35    32    1
    36    10     3    1
    37    16    11    1
    38    24    28    1
    39    27    29    1
