@<TRIPOS>MOLECULE
*****
 38 41 0 0 0
SMALL
GASTEIGER

@<TRIPOS>ATOM
      1 C          63.1300   89.4302   12.3221 C.3     1  UNL1        0.1323
      2 C          63.1871   87.9546   12.5863 C.ar    1  UNL1        0.1416
      3 N          63.8594   87.4398   13.8243 N.ar    1  UNL1       -0.2225
      4 C          63.9165   85.9644   14.0885 C.ar    1  UNL1        0.1352
      5 S          64.5072   85.1684   15.2142 S.2     1  UNL1        0.0322
      6 N          64.2569   83.7158   14.9361 N.ar    1  UNL1       -0.2118
      7 C          63.5115   83.6141   13.6384 C.ar    1  UNL1        0.0738
      8 C          63.0564   82.3453   12.9802 C.3     1  UNL1        0.0530
      9 C          63.3011   85.0038   13.1145 C.ar    1  UNL1        0.0955
     10 C          62.6287   85.5186   11.8765 C.ar    1  UNL1        0.2651
     11 O          62.0134   84.5579   10.9025 O.2     1  UNL1       -0.2668
     12 N          62.5717   86.9940   11.6123 N.ar    1  UNL1       -0.2784
     13 C          61.8993   87.5089   10.3742 C.3     1  UNL1        0.1369
     14 C          61.7659   86.6244    9.1702 C.ar    1  UNL1        0.0005
     15 C          62.9711   85.9231    8.6175 C.ar    1  UNL1       -0.0024
     16 C          62.8377   85.0385    7.4135 C.ar    1  UNL1       -0.0003
     17 C          61.4990   84.8552    6.7621 C.ar    1  UNL1       -0.0000
     18 C          60.2938   85.5565    7.3147 C.ar    1  UNL1       -0.0003
     19 C          60.4272   86.4411    8.5188 C.ar    1  UNL1       -0.0024
     20 C          64.5946   90.4131   14.2297 C.2     1  UNL1        0.2493
     21 O          63.8128   89.6232   15.2371 O.2     1  UNL1       -0.2699
     22 N          64.2532   90.3166   12.7722 N.am    1  UNL1       -0.2708
     23 C          69.0874   93.9590   16.0300 C.3     1  UNL1        0.0310
     24 C          67.9641   93.0725   15.5799 C.ar    1  UNL1       -0.0218
     25 C          68.1749   92.1113   14.4479 C.ar    1  UNL1       -0.0041
     26 C          67.0517   91.2248   13.9978 C.ar    1  UNL1        0.0042
     27 C          65.7178   91.2996   14.6798 C.ar    1  UNL1        0.0536
     28 C          65.5070   92.2610   15.8119 C.ar    1  UNL1        0.0042
     29 C          66.6303   93.1474   16.2618 C.ar    1  UNL1       -0.0041
     30 C          65.0350   91.1066   11.7648 C.3     1  UNL1        0.0955
     31 C          64.7494   92.5664   11.5713 C.3     1  UNL1        0.0383
     32 C          65.8808   93.5484   11.4960 C.3     1  UNL1        0.0669
     33 N          66.0872   94.5409   12.6016 N.3     1  UNL1       -0.3211
     34 H          65.3001   95.1891   12.6279 H       1  UNL1        0.1189
     35 H          66.9496   95.0598   12.4360 H       1  UNL1        0.1189
     36 C          61.9497   90.0191   11.6079 C.3     1  UNL1        0.0255
     37 C          62.1280   90.6511   10.2593 C.3     1  UNL1        0.0022
     38 C          60.5912   89.9762   12.2423 C.3     1  UNL1        0.0022
@<TRIPOS>BOND
     1    23    24    1
     2    24    25   ar
     3    25    26   ar
     4    26    27   ar
     5    27    20    1
     6    20    21    2
     7    20    22   am
     8    22    30    1
     9    30    31    1
    10    31    32    1
    11    32    33    1
    12    22     1    1
    13     1     2    1
    14     2     3   ar
    15     3     4   ar
    16     4     5   ar
    17     5     6   ar
    18     6     7   ar
    19     7     8    1
    20     7     9   ar
    21     9    10   ar
    22    10    11    2
    23    10    12   ar
    24    12    13    1
    25    13    14    1
    26    14    15   ar
    27    15    16   ar
    28    16    17   ar
    29    17    18   ar
    30    18    19   ar
    31     1    36    1
    32    36    37    1
    33    36    38    1
    34    27    28   ar
    35    28    29   ar
    36    29    24   ar
    37    12     2   ar
    38    19    14   ar
    39     9     4   ar
    40    33    34    1
    41    33    35    1
@<TRIPOS>MOLECULE
*****
 38 41 0 0 0
SMALL
GASTEIGER

@<TRIPOS>ATOM
      1 C          63.2016   88.9690   12.5866 C.3     1  UNL1        0.1323
      2 C          63.1785   87.4756   12.7261 C.ar    1  UNL1        0.1416
      3 N          63.7635   86.8272   13.9456 N.ar    1  UNL1       -0.2225
      4 C          63.7405   85.3339   14.0851 C.ar    1  UNL1        0.1352
      5 S          64.2369   84.4189   15.1650 S.2     1  UNL1        0.0322
      6 N          63.9358   83.0086   14.7525 N.ar    1  UNL1       -0.2118
      7 C          63.2531   83.0519   13.4175 C.ar    1  UNL1        0.0738
      8 C          62.7751   81.8663   12.6328 C.3     1  UNL1        0.0530
      9 C          63.1324   84.4890   13.0050 C.ar    1  UNL1        0.0955
     10 C          62.5474   85.1375   11.7855 C.ar    1  UNL1        0.2651
     11 O          61.9394   84.2926   10.7055 O.2     1  UNL1       -0.2668
     12 N          62.5704   86.6308   11.6460 N.ar    1  UNL1       -0.2784
     13 C          61.9854   87.2793   10.4264 C.3     1  UNL1        0.1369
     14 C          61.8001   86.4825    9.1692 C.ar    1  UNL1        0.0005
     15 C          60.4432   86.3826    8.5377 C.ar    1  UNL1       -0.0024
     16 C          60.2579   85.5858    7.2805 C.ar    1  UNL1       -0.0003
     17 C          61.4295   84.8889    6.6547 C.ar    1  UNL1       -0.0000
     18 C          62.7864   84.9888    7.2861 C.ar    1  UNL1       -0.0003
     19 C          62.9717   85.7856    8.5434 C.ar    1  UNL1       -0.0024
     20 C          64.8869   90.9379   12.7692 C.2     1  UNL1        0.2493
     21 O          64.6457   91.2780   11.3283 O.2     1  UNL1       -0.2699
     22 N          64.1648   89.7834   13.3984 N.am    1  UNL1       -0.2708
     23 C          68.7399   94.1953   16.0163 C.3     1  UNL1        0.0310
     24 C          67.7766   93.3809   15.2045 C.ar    1  UNL1       -0.0218
     25 C          66.8735   94.0547   14.2144 C.ar    1  UNL1       -0.0041
     26 C          65.9103   93.2404   13.4027 C.ar    1  UNL1        0.0042
     27 C          65.8501   91.7522   13.5810 C.ar    1  UNL1        0.0536
     28 C          66.7533   91.0783   14.5712 C.ar    1  UNL1        0.0042
     29 C          67.7165   91.8928   15.3829 C.ar    1  UNL1       -0.0041
     30 C          64.4060   89.4432   14.8392 C.3     1  UNL1        0.0955
     31 C          63.3914   89.8186   15.8784 C.3     1  UNL1        0.0383
     32 C          63.1282   88.9010   17.0354 C.3     1  UNL1        0.0669
     33 N          62.7742   87.4645   16.7879 N.3     1  UNL1       -0.3211
     34 H          61.8693   87.4131   16.3200 H       1  UNL1        0.1189
     35 H          62.7255   86.9682   17.6777 H       1  UNL1        0.1189
     36 C          62.2613   89.6480   11.6353 C.3     1  UNL1        0.0255
     37 C          60.8779   90.0163   12.0829 C.3     1  UNL1        0.0022
     38 C          62.7045   89.9587   10.2364 C.3     1  UNL1        0.0022
@<TRIPOS>BOND
     1    23    24    1
     2    24    25   ar
     3    25    26   ar
     4    26    27   ar
     5    27    20    1
     6    20    21    2
     7    20    22   am
     8    22    30    1
     9    30    31    1
    10    31    32    1
    11    32    33    1
    12    22     1    1
    13     1     2    1
    14     2     3   ar
    15     3     4   ar
    16     4     5   ar
    17     5     6   ar
    18     6     7   ar
    19     7     8    1
    20     7     9   ar
    21     9    10   ar
    22    10    11    2
    23    10    12   ar
    24    12    13    1
    25    13    14    1
    26    14    15   ar
    27    15    16   ar
    28    16    17   ar
    29    17    18   ar
    30    18    19   ar
    31     1    36    1
    32    36    37    1
    33    36    38    1
    34    27    28   ar
    35    28    29   ar
    36    29    24   ar
    37    12     2   ar
    38    19    14   ar
    39     9     4   ar
    40    33    34    1
    41    33    35    1
@<TRIPOS>MOLECULE
*****
 38 41 0 0 0
SMALL
GASTEIGER

@<TRIPOS>ATOM
      1 C          61.6282   89.5335   11.7795 C.3     1  UNL1        0.1323
      2 C          62.8206   90.3592   12.1623 C.ar    1  UNL1        0.1416
      3 N          63.5489   91.1537   11.1191 N.ar    1  UNL1       -0.2225
      4 C          64.7412   91.9794   11.5018 C.ar    1  UNL1        0.1352
      5 S          65.6524   92.8594   10.6986 S.2     1  UNL1        0.0322
      6 N          66.6796   93.4345   11.6281 N.ar    1  UNL1       -0.2118
      7 C          66.4033   92.9099   13.0059 C.ar    1  UNL1        0.0738
      8 C          67.1874   93.2286   14.2444 C.3     1  UNL1        0.0530
      9 C          65.2053   92.0106   12.9279 C.ar    1  UNL1        0.0955
     10 C          64.4771   91.2161   13.9712 C.ar    1  UNL1        0.2651
     11 O          64.9412   91.2472   15.3972 O.2     1  UNL1       -0.2668
     12 N          63.2847   90.3904   13.5884 N.ar    1  UNL1       -0.2784
     13 C          62.5564   89.5958   14.6316 C.3     1  UNL1        0.1369
     14 C          63.1416   88.3118   15.1405 C.ar    1  UNL1        0.0005
     15 C          64.1688   87.5815   14.3273 C.ar    1  UNL1       -0.0024
     16 C          64.7539   86.2975   14.8362 C.ar    1  UNL1       -0.0003
     17 C          64.3119   85.7439   16.1583 C.ar    1  UNL1       -0.0000
     18 C          63.2847   86.4743   16.9716 C.ar    1  UNL1       -0.0003
     19 C          62.6995   87.7582   16.4627 C.ar    1  UNL1       -0.0024
     20 C          61.1648   88.3246    9.5270 C.2     1  UNL1        0.2493
     21 O          60.3624   89.5026    9.0597 O.2     1  UNL1       -0.2699
     22 N          61.7978   88.3400   10.8868 N.am    1  UNL1       -0.2708
     23 C          61.8431   83.5506    5.9564 C.3     1  UNL1        0.0310
     24 C          61.6735   84.7441    6.8490 C.ar    1  UNL1       -0.0218
     25 C          62.8292   85.2389    7.6672 C.ar    1  UNL1       -0.0041
     26 C          62.6597   86.4324    8.5599 C.ar    1  UNL1        0.0042
     27 C          61.3344   87.1311    8.6343 C.ar    1  UNL1        0.0536
     28 C          60.1786   86.6362    7.8161 C.ar    1  UNL1        0.0042
     29 C          60.3483   85.4427    6.9235 C.ar    1  UNL1       -0.0041
     30 C          62.6002   87.1620   11.3541 C.3     1  UNL1        0.0955
     31 C          61.9048   85.9481   11.8955 C.3     1  UNL1        0.0383
     32 C          62.6360   84.6413   11.9824 C.3     1  UNL1        0.0669
     33 N          62.5877   83.8376   13.2481 N.3     1  UNL1       -0.3211
     34 H          63.0613   84.3482   13.9933 H       1  UNL1        0.1189
     35 H          63.0533   82.9422   13.1002 H       1  UNL1        0.1189
     36 C          60.2663   89.9013   12.2893 C.3     1  UNL1        0.0255
     37 C          59.5379   91.0745   11.7037 C.3     1  UNL1        0.0022
     38 C          59.6329   89.0959   13.3848 C.3     1  UNL1        0.0022
@<TRIPOS>BOND
     1    23    24    1
     2    24    25   ar
     3    25    26   ar
     4    26    27   ar
     5    27    20    1
     6    20    21    2
     7    20    22   am
     8    22    30    1
     9    30    31    1
    10    31    32    1
    11    32    33    1
    12    22     1    1
    13     1     2    1
    14     2     3   ar
    15     3     4   ar
    16     4     5   ar
    17     5     6   ar
    18     6     7   ar
    19     7     8    1
    20     7     9   ar
    21     9    10   ar
    22    10    11    2
    23    10    12   ar
    24    12    13    1
    25    13    14    1
    26    14    15   ar
    27    15    16   ar
    28    16    17   ar
    29    17    18   ar
    30    18    19   ar
    31     1    36    1
    32    36    37    1
    33    36    38    1
    34    27    28   ar
    35    28    29   ar
    36    29    24   ar
    37    12     2   ar
    38    19    14   ar
    39     9     4   ar
    40    33    34    1
    41    33    35    1
@<TRIPOS>MOLECULE
*****
 38 41 0 0 0
SMALL
GASTEIGER

@<TRIPOS>ATOM
      1 C          62.8953   89.0536   12.5974 C.3     1  UNL1        0.1323
      2 C          63.0335   87.5723   12.4054 C.ar    1  UNL1        0.1416
      3 N          63.3470   86.6902   13.5774 N.ar    1  UNL1       -0.2225
      4 C          63.4852   85.2090   13.3854 C.ar    1  UNL1        0.1352
      5 S          63.7874   84.0964   14.3450 S.2     1  UNL1        0.0322
      6 N          63.7988   82.8097   13.5742 N.ar    1  UNL1       -0.2118
      7 C          63.5036   83.1271   12.1382 C.ar    1  UNL1        0.0738
      8 C          63.4174   82.1356   11.0158 C.3     1  UNL1        0.0530
      9 C          63.3098   84.6099   12.0215 C.ar    1  UNL1        0.0955
     10 C          62.9963   85.4920   10.8495 C.ar    1  UNL1        0.2651
     11 O          62.8209   84.8929    9.4856 O.2     1  UNL1       -0.2668
     12 N          62.8581   86.9732   11.0414 N.ar    1  UNL1       -0.2784
     13 C          62.5446   87.8554    9.8695 C.3     1  UNL1        0.1369
     14 C          61.3149   87.6029    9.0485 C.ar    1  UNL1        0.0005
     15 C          60.3974   88.7382    8.7033 C.ar    1  UNL1       -0.0024
     16 C          59.1677   88.4857    7.8823 C.ar    1  UNL1       -0.0003
     17 C          58.8555   87.0978    7.4065 C.ar    1  UNL1       -0.0000
     18 C          59.7730   85.9625    7.7517 C.ar    1  UNL1       -0.0003
     19 C          61.0027   86.2150    8.5727 C.ar    1  UNL1       -0.0024
     20 C          64.6554   90.9581   12.7569 C.2     1  UNL1        0.2493
     21 O          64.3540   91.3552   11.3422 O.2     1  UNL1       -0.2699
     22 N          63.9261   89.8073   13.3845 N.am    1  UNL1       -0.2708
     23 C          68.7783   93.9726   15.9056 C.3     1  UNL1        0.0310
     24 C          67.7475   93.2190   15.1184 C.ar    1  UNL1       -0.0218
     25 C          67.6105   91.7351   15.2894 C.ar    1  UNL1       -0.0041
     26 C          66.5798   90.9814   14.5022 C.ar    1  UNL1        0.0042
     27 C          65.6861   91.7117   13.5441 C.ar    1  UNL1        0.0536
     28 C          65.8232   93.1957   13.3730 C.ar    1  UNL1        0.0042
     29 C          66.8539   93.9492   14.1603 C.ar    1  UNL1       -0.0041
     30 C          64.2275   89.4101   14.7992 C.3     1  UNL1        0.0955
     31 C          63.2116   89.6469   15.8773 C.3     1  UNL1        0.0383
     32 C          63.0487   88.6501   16.9862 C.3     1  UNL1        0.0669
     33 N          63.0131   87.1828   16.6765 N.3     1  UNL1       -0.3211
     34 H          62.1772   86.9705   16.1319 H       1  UNL1        0.1189
     35 H          62.9956   86.6519   17.5472 H       1  UNL1        0.1189
     36 C          61.7264   89.7812   12.0022 C.3     1  UNL1        0.0255
     37 C          60.3287   89.3978   12.3883 C.3     1  UNL1        0.0022
     38 C          61.9553   90.8923   11.0208 C.3     1  UNL1        0.0022
@<TRIPOS>BOND
     1    23    24    1
     2    24    25   ar
     3    25    26   ar
     4    26    27   ar
     5    27    20    1
     6    20    21    2
     7    20    22   am
     8    22    30    1
     9    30    31    1
    10    31    32    1
    11    32    33    1
    12    22     1    1
    13     1     2    1
    14     2     3   ar
    15     3     4   ar
    16     4     5   ar
    17     5     6   ar
    18     6     7   ar
    19     7     8    1
    20     7     9   ar
    21     9    10   ar
    22    10    11    2
    23    10    12   ar
    24    12    13    1
    25    13    14    1
    26    14    15   ar
    27    15    16   ar
    28    16    17   ar
    29    17    18   ar
    30    18    19   ar
    31     1    36    1
    32    36    37    1
    33    36    38    1
    34    27    28   ar
    35    28    29   ar
    36    29    24   ar
    37    12     2   ar
    38    19    14   ar
    39     9     4   ar
    40    33    34    1
    41    33    35    1
@<TRIPOS>MOLECULE
*****
 38 41 0 0 0
SMALL
GASTEIGER

@<TRIPOS>ATOM
      1 C          61.3991   89.8813   11.2945 C.3     1  UNL1        0.1323
      2 C          62.6660   90.5598   11.7246 C.ar    1  UNL1        0.1416
      3 N          63.4499   91.3775   10.7414 N.ar    1  UNL1       -0.2225
      4 C          64.7167   92.0559   11.1714 C.ar    1  UNL1        0.1352
      5 S          65.6935   92.9204   10.4310 S.2     1  UNL1        0.0322
      6 N          66.7801   93.3155   11.3866 N.ar    1  UNL1       -0.2118
      7 C          66.4747   92.6951   12.7177 C.ar    1  UNL1        0.0738
      8 C          67.2999   92.8296   13.9632 C.3     1  UNL1        0.0530
      9 C          65.1995   91.9166   12.5847 C.ar    1  UNL1        0.0955
     10 C          64.4156   91.0989   13.5680 C.ar    1  UNL1        0.2651
     11 O          64.8984   90.9596   14.9813 O.2     1  UNL1       -0.2668
     12 N          63.1488   90.4205   13.1379 N.ar    1  UNL1       -0.2784
     13 C          62.3647   89.6027   14.1212 C.3     1  UNL1        0.1369
     14 C          63.0066   88.4303   14.8020 C.ar    1  UNL1        0.0005
     15 C          63.9657   87.5579   14.0477 C.ar    1  UNL1       -0.0024
     16 C          64.6076   86.3855   14.7285 C.ar    1  UNL1       -0.0003
     17 C          64.2902   86.0855   16.1636 C.ar    1  UNL1       -0.0000
     18 C          63.3310   86.9579   16.9178 C.ar    1  UNL1       -0.0003
     19 C          62.6892   88.1303   16.2370 C.ar    1  UNL1       -0.0024
     20 C          61.6905   87.4984   10.3012 C.2     1  UNL1        0.2493
     21 O          61.9670   86.9600   11.6737 O.2     1  UNL1       -0.2699
     22 N          61.4065   88.9590   10.1115 N.am    1  UNL1       -0.2708
     23 C          61.7204   83.8092    5.5695 C.3     1  UNL1        0.0310
     24 C          61.7129   84.7315    6.7525 C.ar    1  UNL1       -0.0218
     25 C          62.9883   85.0181    7.4880 C.ar    1  UNL1       -0.0041
     26 C          62.9809   85.9404    8.6709 C.ar    1  UNL1        0.0042
     27 C          61.6980   86.5761    9.1183 C.ar    1  UNL1        0.0536
     28 C          60.4224   86.2894    8.3827 C.ar    1  UNL1        0.0042
     29 C          60.4300   85.3671    7.1998 C.ar    1  UNL1       -0.0041
     30 C          61.1301   89.4974    8.7391 C.3     1  UNL1        0.0955
     31 C          59.7234   89.5404    8.2197 C.3     1  UNL1        0.0383
     32 C          59.4596   89.3637    6.7537 C.3     1  UNL1        0.0669
     33 N          59.7176   90.4953    5.8035 N.3     1  UNL1       -0.3211
     34 H          59.0723   91.2599    6.0021 H       1  UNL1        0.1189
     35 H          59.5788   90.1733    4.8456 H       1  UNL1        0.1189
     36 C          60.1248   90.1252   12.0473 C.3     1  UNL1        0.0255
     37 C          59.7162   89.1954   13.1512 C.3     1  UNL1        0.0022
     38 C          59.2592   91.2989   11.6964 C.3     1  UNL1        0.0022
@<TRIPOS>BOND
     1    23    24    1
     2    24    25   ar
     3    25    26   ar
     4    26    27   ar
     5    27    20    1
     6    20    21    2
     7    20    22   am
     8    22    30    1
     9    30    31    1
    10    31    32    1
    11    32    33    1
    12    22     1    1
    13     1     2    1
    14     2     3   ar
    15     3     4   ar
    16     4     5   ar
    17     5     6   ar
    18     6     7   ar
    19     7     8    1
    20     7     9   ar
    21     9    10   ar
    22    10    11    2
    23    10    12   ar
    24    12    13    1
    25    13    14    1
    26    14    15   ar
    27    15    16   ar
    28    16    17   ar
    29    17    18   ar
    30    18    19   ar
    31     1    36    1
    32    36    37    1
    33    36    38    1
    34    27    28   ar
    35    28    29   ar
    36    29    24   ar
    37    12     2   ar
    38    19    14   ar
    39     9     4   ar
    40    33    34    1
    41    33    35    1
@<TRIPOS>MOLECULE
*****
 38 41 0 0 0
SMALL
GASTEIGER

@<TRIPOS>ATOM
      1 C          62.4065   88.8857   12.1437 C.3     1  UNL1        0.1323
      2 C          62.6559   87.4138   11.9965 C.ar    1  UNL1        0.1416
      3 N          62.8621   86.5626   13.2142 N.ar    1  UNL1       -0.2225
      4 C          63.1115   85.0909   13.0671 C.ar    1  UNL1        0.1352
      5 S          63.3483   84.0071   14.0767 S.2     1  UNL1        0.0322
      6 N          63.5379   82.7167   13.3358 N.ar    1  UNL1       -0.2118
      7 C          63.4182   83.0030   11.8683 C.ar    1  UNL1        0.0738
      8 C          63.5406   81.9983   10.7611 C.3     1  UNL1        0.0530
      9 C          63.1547   84.4703   11.7022 C.ar    1  UNL1        0.0955
     10 C          62.9485   85.3215   10.4844 C.ar    1  UNL1        0.2651
     11 O          62.9917   84.7009    9.1195 O.2     1  UNL1       -0.2668
     12 N          62.6991   86.7932   10.6315 N.ar    1  UNL1       -0.2784
     13 C          62.4929   87.6445    9.4138 C.3     1  UNL1        0.1369
     14 C          61.1614   87.6555    8.7232 C.ar    1  UNL1        0.0005
     15 C          60.5484   88.9564    8.2968 C.ar    1  UNL1       -0.0024
     16 C          59.2169   88.9674    7.6062 C.ar    1  UNL1       -0.0003
     17 C          58.4984   87.6774    7.3419 C.ar    1  UNL1       -0.0000
     18 C          59.1114   86.3765    7.7683 C.ar    1  UNL1       -0.0003
     19 C          60.4429   86.3655    8.4589 C.ar    1  UNL1       -0.0024
     20 C          63.7292   89.9777   14.0951 C.2     1  UNL1        0.2493
     21 O          62.8565   89.2652   15.0854 O.2     1  UNL1       -0.2699
     22 N          63.5042   89.7880   12.6242 N.am    1  UNL1       -0.2708
     23 C          68.1199   93.5871   16.0172 C.3     1  UNL1        0.0310
     24 C          67.0222   92.6847   15.5366 C.ar    1  UNL1       -0.0218
     25 C          65.7113   92.6452   16.2645 C.ar    1  UNL1       -0.0041
     26 C          64.6136   91.7428   15.7840 C.ar    1  UNL1        0.0042
     27 C          64.8269   90.8801   14.5756 C.ar    1  UNL1        0.0536
     28 C          66.1379   90.9196   13.8477 C.ar    1  UNL1        0.0042
     29 C          67.2355   91.8220   14.3283 C.ar    1  UNL1       -0.0041
     30 C          64.3768   90.5005   11.6339 C.3     1  UNL1        0.0955
     31 C          64.1515   91.9554   11.3461 C.3     1  UNL1        0.0383
     32 C          65.2451   92.7760   10.7293 C.3     1  UNL1        0.0669
     33 N          65.4847   94.1804   11.1987 N.3     1  UNL1       -0.3211
     34 H          64.6805   94.7606   10.9598 H       1  UNL1        0.1189
     35 H          66.3191   94.5527   10.7454 H       1  UNL1        0.1189
     36 C          61.0594   89.4551   11.8104 C.3     1  UNL1        0.0255
     37 C          60.9506   90.8352   11.2330 C.3     1  UNL1        0.0022
     38 C          59.8212   88.6444   12.0544 C.3     1  UNL1        0.0022
@<TRIPOS>BOND
     1    23    24    1
     2    24    25   ar
     3    25    26   ar
     4    26    27   ar
     5    27    20    1
     6    20    21    2
     7    20    22   am
     8    22    30    1
     9    30    31    1
    10    31    32    1
    11    32    33    1
    12    22     1    1
    13     1     2    1
    14     2     3   ar
    15     3     4   ar
    16     4     5   ar
    17     5     6   ar
    18     6     7   ar
    19     7     8    1
    20     7     9   ar
    21     9    10   ar
    22    10    11    2
    23    10    12   ar
    24    12    13    1
    25    13    14    1
    26    14    15   ar
    27    15    16   ar
    28    16    17   ar
    29    17    18   ar
    30    18    19   ar
    31     1    36    1
    32    36    37    1
    33    36    38    1
    34    27    28   ar
    35    28    29   ar
    36    29    24   ar
    37    12     2   ar
    38    19    14   ar
    39     9     4   ar
    40    33    34    1
    41    33    35    1
@<TRIPOS>MOLECULE
*****
 38 41 0 0 0
SMALL
GASTEIGER

@<TRIPOS>ATOM
      1 C          62.5956   87.3298   12.0155 C.3     1  UNL1        0.1323
      2 C          62.6285   85.8363   12.1518 C.ar    1  UNL1        0.1416
      3 N          62.2982   85.1958   13.4672 N.ar    1  UNL1       -0.2225
      4 C          62.3311   83.7024   13.6034 C.ar    1  UNL1        0.1352
      5 S          62.0555   82.7941   14.7649 S.2     1  UNL1        0.0322
      6 N          62.2484   81.3800   14.3036 N.ar    1  UNL1       -0.2118
      7 C          62.6433   81.4142   12.8569 C.ar    1  UNL1        0.0738
      8 C          62.9358   80.2223   11.9944 C.3     1  UNL1        0.0530
      9 C          62.6944   82.8495   12.4242 C.ar    1  UNL1        0.0955
     10 C          63.0248   83.4900   11.1087 C.ar    1  UNL1        0.2651
     11 O          63.3881   82.6372    9.9295 O.2     1  UNL1       -0.2668
     12 N          62.9919   84.9835   10.9724 N.ar    1  UNL1       -0.2784
     13 C          63.3223   85.6241    9.6570 C.3     1  UNL1        0.1369
     14 C          62.4645   85.3563    8.4559 C.ar    1  UNL1        0.0005
     15 C          63.0438   84.6585    7.2612 C.ar    1  UNL1       -0.0024
     16 C          62.1860   84.3906    6.0601 C.ar    1  UNL1       -0.0003
     17 C          60.7490   84.8206    6.0539 C.ar    1  UNL1       -0.0000
     18 C          60.1697   85.5184    7.2487 C.ar    1  UNL1       -0.0003
     19 C          61.0275   85.7862    8.4497 C.ar    1  UNL1       -0.0024
     20 C          63.3771   89.6753   12.8143 C.2     1  UNL1        0.2493
     21 O          62.3673   90.3194   11.9112 O.2     1  UNL1       -0.2699
     22 N          63.4912   88.1805   12.8665 N.am    1  UNL1       -0.2708
     23 C          66.9596   93.0780   16.2184 C.3     1  UNL1        0.0310
     24 C          66.0639   92.2273   15.3673 C.ar    1  UNL1       -0.0218
     25 C          64.8202   91.6279   15.9535 C.ar    1  UNL1       -0.0041
     26 C          63.9245   90.7772   15.1026 C.ar    1  UNL1        0.0042
     27 C          64.2727   90.5260   13.6653 C.ar    1  UNL1        0.0536
     28 C          65.5166   91.1254   13.0790 C.ar    1  UNL1        0.0042
     29 C          66.4121   91.9761   13.9301 C.ar    1  UNL1       -0.0041
     30 C          64.5010   87.5364   13.7696 C.3     1  UNL1        0.0955
     31 C          64.1311   87.1894   15.1813 C.3     1  UNL1        0.0383
     32 C          64.5169   85.8569   15.7517 C.3     1  UNL1        0.0669
     33 N          65.2617   84.8665   14.9065 N.3     1  UNL1       -0.3211
     34 H          64.6649   84.5575   14.1392 H       1  UNL1        0.1189
     35 H          65.5255   84.0632   15.4769 H       1  UNL1        0.1189
     36 C          61.6671   87.9726   11.0283 C.3     1  UNL1        0.0255
     37 C          60.1831   87.8909   11.2313 C.3     1  UNL1        0.0022
     38 C          62.2224   88.6970    9.8380 C.3     1  UNL1        0.0022
@<TRIPOS>BOND
     1    23    24    1
     2    24    25   ar
     3    25    26   ar
     4    26    27   ar
     5    27    20    1
     6    20    21    2
     7    20    22   am
     8    22    30    1
     9    30    31    1
    10    31    32    1
    11    32    33    1
    12    22     1    1
    13     1     2    1
    14     2     3   ar
    15     3     4   ar
    16     4     5   ar
    17     5     6   ar
    18     6     7   ar
    19     7     8    1
    20     7     9   ar
    21     9    10   ar
    22    10    11    2
    23    10    12   ar
    24    12    13    1
    25    13    14    1
    26    14    15   ar
    27    15    16   ar
    28    16    17   ar
    29    17    18   ar
    30    18    19   ar
    31     1    36    1
    32    36    37    1
    33    36    38    1
    34    27    28   ar
    35    28    29   ar
    36    29    24   ar
    37    12     2   ar
    38    19    14   ar
    39     9     4   ar
    40    33    34    1
    41    33    35    1
@<TRIPOS>MOLECULE
*****
 38 41 0 0 0
SMALL
GASTEIGER

@<TRIPOS>ATOM
      1 C          64.3480   89.7611   14.7568 C.3     1  UNL1        0.1323
      2 C          64.1408   88.3466   14.3025 C.ar    1  UNL1        0.1416
      3 N          64.5320   87.2070   15.1959 N.ar    1  UNL1       -0.2225
      4 C          64.3249   85.7926   14.7416 C.ar    1  UNL1        0.1352
      5 S          64.6109   84.4751   15.3992 S.2     1  UNL1        0.0322
      6 N          64.1893   83.3860   14.4579 N.ar    1  UNL1       -0.2118
      7 C          63.6428   84.0304   13.2185 C.ar    1  UNL1        0.0738
      8 C          63.1065   83.3133   12.0151 C.3     1  UNL1        0.0530
      9 C          63.7266   85.5177   13.3939 C.ar    1  UNL1        0.0955
     10 C          63.3354   86.6573   12.5004 C.ar    1  UNL1        0.2651
     11 O          62.7370   86.3824   11.1527 O.2     1  UNL1       -0.2668
     12 N          63.5425   88.0718   12.9547 N.ar    1  UNL1       -0.2784
     13 C          63.1513   89.2115   12.0612 C.3     1  UNL1        0.1369
     14 C          61.9144   89.1132   11.2184 C.ar    1  UNL1        0.0005
     15 C          62.0245   89.1099    9.7225 C.ar    1  UNL1       -0.0024
     16 C          60.7875   89.0117    8.8797 C.ar    1  UNL1       -0.0003
     17 C          59.4405   88.9167    9.5328 C.ar    1  UNL1       -0.0000
     18 C          59.3304   88.9200   11.0287 C.ar    1  UNL1       -0.0003
     19 C          60.5673   89.0183   11.8715 C.ar    1  UNL1       -0.0024
     20 C          64.4702   91.6235   12.9495 C.2     1  UNL1        0.2493
     21 O          62.9763   91.5938   12.8176 O.2     1  UNL1       -0.2699
     22 N          65.1561   90.7072   13.9190 N.am    1  UNL1       -0.2708
     23 C          67.7027   95.4078    9.5983 C.3     1  UNL1        0.0310
     24 C          66.8946   94.4618   10.4362 C.ar    1  UNL1       -0.0218
     25 C          66.3569   93.1980    9.8331 C.ar    1  UNL1       -0.0041
     26 C          65.5488   92.2519   10.6709 C.ar    1  UNL1        0.0042
     27 C          65.2783   92.5696   12.1117 C.ar    1  UNL1        0.0536
     28 C          65.8161   93.8335   12.7148 C.ar    1  UNL1        0.0042
     29 C          66.6242   94.7795   11.8769 C.ar    1  UNL1       -0.0041
     30 C          66.6500   90.7370   14.0509 C.3     1  UNL1        0.0955
     31 C          67.2983   91.6751   15.0254 C.3     1  UNL1        0.0383
     32 C          68.6620   92.2301   14.7383 C.3     1  UNL1        0.0669
     33 N          69.3476   91.9032   13.4448 N.3     1  UNL1       -0.3211
     34 H          69.5594   90.9059   13.4148 H       1  UNL1        0.1189
     35 H          70.2139   92.4370   13.3749 H       1  UNL1        0.1189
     36 C          63.7470   90.2295   16.0489 C.3     1  UNL1        0.0255
     37 C          62.9175   89.2909   16.8740 C.3     1  UNL1        0.0022
     38 C          63.9755   91.6365   16.5158 C.3     1  UNL1        0.0022
@<TRIPOS>BOND
     1    23    24    1
     2    24    25   ar
     3    25    26   ar
     4    26    27   ar
     5    27    20    1
     6    20    21    2
     7    20    22   am
     8    22    30    1
     9    30    31    1
    10    31    32    1
    11    32    33    1
    12    22     1    1
    13     1     2    1
    14     2     3   ar
    15     3     4   ar
    16     4     5   ar
    17     5     6   ar
    18     6     7   ar
    19     7     8    1
    20     7     9   ar
    21     9    10   ar
    22    10    11    2
    23    10    12   ar
    24    12    13    1
    25    13    14    1
    26    14    15   ar
    27    15    16   ar
    28    16    17   ar
    29    17    18   ar
    30    18    19   ar
    31     1    36    1
    32    36    37    1
    33    36    38    1
    34    27    28   ar
    35    28    29   ar
    36    29    24   ar
    37    12     2   ar
    38    19    14   ar
    39     9     4   ar
    40    33    34    1
    41    33    35    1
@<TRIPOS>MOLECULE
*****
 38 41 0 0 0
SMALL
GASTEIGER

@<TRIPOS>ATOM
      1 C          62.8924   89.9866   11.9089 C.3     1  UNL1        0.1323
      2 C          63.7605   90.6715   12.9225 C.ar    1  UNL1        0.1416
      3 N          63.3404   90.7165   14.3617 N.ar    1  UNL1       -0.2225
      4 C          64.2084   91.4015   15.3753 C.ar    1  UNL1        0.1352
      5 S          64.0564   91.6045   16.8537 S.2     1  UNL1        0.0322
      6 N          65.2504   92.3699   17.3418 N.ar    1  UNL1       -0.2118
      7 C          66.1405   92.6400   16.1650 C.ar    1  UNL1        0.0738
      8 C          67.4455   93.3789   16.1977 C.3     1  UNL1        0.0530
      9 C          65.4965   92.0414   14.9497 C.ar    1  UNL1        0.0955
     10 C          65.9166   91.9965   13.5104 C.ar    1  UNL1        0.2651
     11 O          67.2047   92.6365   13.0847 O.2     1  UNL1       -0.2668
     12 N          65.0486   91.3115   12.4968 N.ar    1  UNL1       -0.2784
     13 C          65.4687   91.2665   11.0575 C.3     1  UNL1        0.1369
     14 C          66.2253   92.4160   10.4608 C.ar    1  UNL1        0.0005
     15 C          67.5763   92.1884    9.8501 C.ar    1  UNL1       -0.0024
     16 C          68.3330   93.3379    9.2534 C.ar    1  UNL1       -0.0003
     17 C          67.7387   94.7151    9.2674 C.ar    1  UNL1       -0.0000
     18 C          66.3877   94.9427    9.8781 C.ar    1  UNL1       -0.0003
     19 C          65.6310   93.7932   10.4747 C.ar    1  UNL1       -0.0024
     20 C          63.4537   87.6731   12.9495 C.2     1  UNL1        0.2493
     21 O          64.0804   88.3556   14.1290 O.2     1  UNL1       -0.2699
     22 N          62.8596   88.4885   11.8394 N.am    1  UNL1       -0.2708
     23 C          63.3225   81.6809   12.6715 C.3     1  UNL1        0.0310
     24 C          63.3553   83.1790   12.7409 C.ar    1  UNL1       -0.0218
     25 C          64.0984   83.8622   13.8504 C.ar    1  UNL1       -0.0041
     26 C          64.1311   85.3603   13.9200 C.ar    1  UNL1        0.0042
     27 C          63.4209   86.1751   12.8799 C.ar    1  UNL1        0.0536
     28 C          62.6778   85.4918   11.7704 C.ar    1  UNL1        0.0042
     29 C          62.6450   83.9938   11.7010 C.ar    1  UNL1       -0.0041
     30 C          62.2328   87.8060   10.6598 C.3     1  UNL1        0.0955
     31 C          60.7444   87.6302   10.5988 C.3     1  UNL1        0.0383
     32 C          60.0479   87.5891    9.2710 C.3     1  UNL1        0.0669
     33 N          59.9168   88.8401    8.4538 N.3     1  UNL1       -0.3211
     34 H          59.3149   89.5034    8.9418 H       1  UNL1        0.1189
     35 H          59.5077   88.6129    7.5475 H       1  UNL1        0.1189
     36 C          62.0572   90.7996   10.9648 C.3     1  UNL1        0.0255
     37 C          62.6785   91.3949    9.7362 C.3     1  UNL1        0.0022
     38 C          60.6006   91.0174   11.2493 C.3     1  UNL1        0.0022
@<TRIPOS>BOND
     1    23    24    1
     2    24    25   ar
     3    25    26   ar
     4    26    27   ar
     5    27    20    1
     6    20    21    2
     7    20    22   am
     8    22    30    1
     9    30    31    1
    10    31    32    1
    11    32    33    1
    12    22     1    1
    13     1     2    1
    14     2     3   ar
    15     3     4   ar
    16     4     5   ar
    17     5     6   ar
    18     6     7   ar
    19     7     8    1
    20     7     9   ar
    21     9    10   ar
    22    10    11    2
    23    10    12   ar
    24    12    13    1
    25    13    14    1
    26    14    15   ar
    27    15    16   ar
    28    16    17   ar
    29    17    18   ar
    30    18    19   ar
    31     1    36    1
    32    36    37    1
    33    36    38    1
    34    27    28   ar
    35    28    29   ar
    36    29    24   ar
    37    12     2   ar
    38    19    14   ar
    39     9     4   ar
    40    33    34    1
    41    33    35    1
