@<TRIPOS>MOLECULE
*****
 22 25 0 0 0
SMALL
GASTEIGER

@<TRIPOS>ATOM
      1 C          63.3730   85.3997   13.2140 C.ar    1  UNL1       -0.0003
      2 C          64.1243   85.9101   14.4076 C.ar    1  UNL1       -0.0000
      3 C          64.3694   87.3814   14.5666 C.ar    1  UNL1       -0.0003
      4 C          63.8632   88.3422   13.5319 C.ar    1  UNL1       -0.0039
      5 C          63.1119   87.8317   12.3382 C.ar    1  UNL1       -0.0178
      6 C          62.8668   86.3605   12.1793 C.ar    1  UNL1       -0.0039
      7 C          62.7364   89.0094   11.4885 C.3     1  UNL1        0.0523
      8 C          63.2557   90.2477   12.1571 C.2     1  UNL1       -0.0214
      9 C          63.9521   89.8354   13.4200 C.2     1  UNL1       -0.0027
     10 F          62.3924   79.5146   12.5778 F       1  UNL1       -0.2042
     11 C          62.6375   80.9858   12.7369 C.ar    1  UNL1        0.1401
     12 C          62.3840   81.6499   14.0578 C.ar    1  UNL1        0.0296
     13 C          62.6292   83.1212   14.2168 C.ar    1  UNL1        0.0023
     14 C          63.1278   83.9284   13.0550 C.ar    1  UNL1        0.0001
     15 C          63.3813   83.2643   11.7341 C.ar    1  UNL1        0.0023
     16 C          63.1362   81.7930   11.5750 C.ar    1  UNL1        0.0296
     17 C          64.6201   90.7548   14.3990 C.ar    1  UNL1        0.0189
     18 C          66.0116   91.2487   14.1348 C.ar    1  UNL1        0.0031
     19 C          66.6795   92.1681   15.1139 C.ar    1  UNL1        0.0207
     20 C          65.9560   92.5934   16.3571 C.ar    1  UNL1        0.0989
     21 N          64.5645   92.0995   16.6213 N.ar    1  UNL1       -0.2423
     22 C          63.8966   91.1801   15.6422 C.ar    1  UNL1        0.0988
@<TRIPOS>BOND
     1    10    11    1
     2    11    12   ar
     3    12    13   ar
     4    13    14   ar
     5    14     1    1
     6     1     2   ar
     7     2     3   ar
     8     3     4   ar
     9     4     5   ar
    10     5     6   ar
    11     5     7    1
    12     7     8    1
    13     8     9    2
    14     9    17    1
    15    17    18   ar
    16    18    19   ar
    17    19    20   ar
    18    20    21   ar
    19    21    22   ar
    20    14    15   ar
    21    15    16   ar
    22    16    11   ar
    23     6     1   ar
    24    22    17   ar
    25     9     4    1
@<TRIPOS>MOLECULE
*****
 22 25 0 0 0
SMALL
GASTEIGER

@<TRIPOS>ATOM
      1 C          63.3356   85.4471   13.2211 C.ar    1  UNL1       -0.0003
      2 C          64.1223   85.9772   14.3829 C.ar    1  UNL1       -0.0000
      3 C          64.3845   87.4493   14.5019 C.ar    1  UNL1       -0.0003
      4 C          63.8599   88.3912   13.4590 C.ar    1  UNL1       -0.0039
      5 C          63.0732   87.8611   12.2972 C.ar    1  UNL1       -0.0178
      6 C          62.8110   86.3890   12.1782 C.ar    1  UNL1       -0.0039
      7 C          62.6860   89.0228   11.4309 C.3     1  UNL1        0.0523
      8 C          63.2335   90.2710   12.0573 C.2     1  UNL1       -0.0214
      9 C          63.9590   89.8807   13.3108 C.2     1  UNL1       -0.0027
     10 F          62.2868   79.5586   12.7451 F       1  UNL1       -0.2042
     11 C          62.5490   81.0307   12.8641 C.ar    1  UNL1        0.1401
     12 C          63.0482   81.8018   11.6783 C.ar    1  UNL1        0.0296
     13 C          63.3104   83.2740   11.7973 C.ar    1  UNL1        0.0023
     14 C          63.0734   83.9749   13.1021 C.ar    1  UNL1        0.0001
     15 C          62.5742   83.2038   14.2879 C.ar    1  UNL1        0.0023
     16 C          62.3120   81.7317   14.1689 C.ar    1  UNL1        0.0296
     17 C          64.6604   90.8155   14.2510 C.ar    1  UNL1        0.0189
     18 C          64.0920   91.0737   15.6149 C.ar    1  UNL1        0.0031
     19 C          64.7935   92.0086   16.5550 C.ar    1  UNL1        0.0207
     20 C          66.0633   92.6853   16.1313 C.ar    1  UNL1        0.0989
     21 N          66.6317   92.4272   14.7673 N.ar    1  UNL1       -0.2423
     22 C          65.9302   91.4923   13.8272 C.ar    1  UNL1        0.0988
@<TRIPOS>BOND
     1    10    11    1
     2    11    12   ar
     3    12    13   ar
     4    13    14   ar
     5    14     1    1
     6     1     2   ar
     7     2     3   ar
     8     3     4   ar
     9     4     5   ar
    10     5     6   ar
    11     5     7    1
    12     7     8    1
    13     8     9    2
    14     9    17    1
    15    17    18   ar
    16    18    19   ar
    17    19    20   ar
    18    20    21   ar
    19    21    22   ar
    20    14    15   ar
    21    15    16   ar
    22    16    11   ar
    23     6     1   ar
    24    22    17   ar
    25     9     4    1
@<TRIPOS>MOLECULE
*****
 22 25 0 0 0
SMALL
GASTEIGER

@<TRIPOS>ATOM
      1 C          62.6879   89.7276   10.7760 C.ar    1  UNL1       -0.0003
      2 C          63.1587   89.3343   12.1448 C.ar    1  UNL1       -0.0000
      3 C          64.1657   90.1821   12.8639 C.ar    1  UNL1       -0.0003
      4 C          64.7019   91.4232   12.2142 C.ar    1  UNL1       -0.0039
      5 C          64.2311   91.8165   10.8454 C.ar    1  UNL1       -0.0178
      6 C          63.2241   90.9687   10.1263 C.ar    1  UNL1       -0.0039
      7 C          64.9331   93.0850   10.4606 C.3     1  UNL1        0.0523
      8 C          65.8377   93.4757   11.5915 C.2     1  UNL1       -0.0214
      9 C          65.6949   92.4486   12.6753 C.2     1  UNL1       -0.0027
     10 F          58.6596   86.3366    7.8995 F       1  UNL1       -0.2042
     11 C          59.6666   87.1843    8.6186 C.ar    1  UNL1        0.1401
     12 C          60.6904   86.5417    9.5068 C.ar    1  UNL1        0.0296
     13 C          61.6975   87.3895   10.2260 C.ar    1  UNL1        0.0023
     14 C          61.6808   88.8798   10.0569 C.ar    1  UNL1        0.0001
     15 C          60.6570   89.5224    9.1687 C.ar    1  UNL1        0.0023
     16 C          59.6500   88.6748    8.4495 C.ar    1  UNL1        0.0296
     17 C          66.4180   92.4472   13.9895 C.ar    1  UNL1        0.0189
     18 C          67.9048   92.2527   14.0273 C.ar    1  UNL1        0.0031
     19 C          68.6278   92.2513   15.3415 C.ar    1  UNL1        0.0207
     20 C          67.8641   92.4444   16.6179 C.ar    1  UNL1        0.0989
     21 N          66.3772   92.6389   16.5802 N.ar    1  UNL1       -0.2423
     22 C          65.6542   92.6403   15.2660 C.ar    1  UNL1        0.0988
@<TRIPOS>BOND
     1    10    11    1
     2    11    12   ar
     3    12    13   ar
     4    13    14   ar
     5    14     1    1
     6     1     2   ar
     7     2     3   ar
     8     3     4   ar
     9     4     5   ar
    10     5     6   ar
    11     5     7    1
    12     7     8    1
    13     8     9    2
    14     9    17    1
    15    17    18   ar
    16    18    19   ar
    17    19    20   ar
    18    20    21   ar
    19    21    22   ar
    20    14    15   ar
    21    15    16   ar
    22    16    11   ar
    23     6     1   ar
    24    22    17   ar
    25     9     4    1
@<TRIPOS>MOLECULE
*****
 22 25 0 0 0
SMALL
GASTEIGER

@<TRIPOS>ATOM
      1 C          64.3539   90.3738   13.1051 C.ar    1  UNL1       -0.0003
      2 C          63.6028   90.9432   11.9383 C.ar    1  UNL1       -0.0000
      3 C          62.7208   90.0570   11.1096 C.ar    1  UNL1       -0.0003
      4 C          62.5898   88.6015   11.4478 C.ar    1  UNL1       -0.0039
      5 C          63.3409   88.0322   12.6147 C.ar    1  UNL1       -0.0178
      6 C          64.2229   88.9183   13.4434 C.ar    1  UNL1       -0.0039
      7 C          63.0167   86.5705   12.7059 C.3     1  UNL1        0.0523
      8 C          62.0653   86.2364   11.5954 C.2     1  UNL1       -0.0214
      9 C          61.8014   87.4917   10.8178 C.2     1  UNL1       -0.0027
     10 F          67.8822   93.9183   16.4200 F       1  UNL1       -0.2042
     11 C          67.0001   93.0322   15.5913 C.ar    1  UNL1        0.1401
     12 C          65.7987   92.3805   16.2094 C.ar    1  UNL1        0.0296
     13 C          64.9166   91.4943   15.3806 C.ar    1  UNL1        0.0023
     14 C          65.2359   91.2600   13.9339 C.ar    1  UNL1        0.0001
     15 C          66.4373   91.9117   13.3158 C.ar    1  UNL1        0.0023
     16 C          67.3194   92.7978   14.1445 C.ar    1  UNL1        0.0296
     17 C          60.9064   87.6155    9.6205 C.ar    1  UNL1        0.0189
     18 C          60.3996   86.3827    8.9323 C.ar    1  UNL1        0.0031
     19 C          59.5046   86.5066    7.7350 C.ar    1  UNL1        0.0207
     20 C          59.1163   87.8630    7.2259 C.ar    1  UNL1        0.0989
     21 N          59.6230   89.0958    7.9142 N.ar    1  UNL1       -0.2423
     22 C          60.5181   88.9719    9.1114 C.ar    1  UNL1        0.0988
@<TRIPOS>BOND
     1    10    11    1
     2    11    12   ar
     3    12    13   ar
     4    13    14   ar
     5    14     1    1
     6     1     2   ar
     7     2     3   ar
     8     3     4   ar
     9     4     5   ar
    10     5     6   ar
    11     5     7    1
    12     7     8    1
    13     8     9    2
    14     9    17    1
    15    17    18   ar
    16    18    19   ar
    17    19    20   ar
    18    20    21   ar
    19    21    22   ar
    20    14    15   ar
    21    15    16   ar
    22    16    11   ar
    23     6     1   ar
    24    22    17   ar
    25     9     4    1
@<TRIPOS>MOLECULE
*****
 22 25 0 0 0
SMALL
GASTEIGER

@<TRIPOS>ATOM
      1 C          64.1084   89.6596   14.0947 C.ar    1  UNL1       -0.0003
      2 C          65.2309   90.6407   14.2600 C.ar    1  UNL1       -0.0000
      3 C          65.5310   91.6274   13.1708 C.ar    1  UNL1       -0.0003
      4 C          64.7087   91.6329   11.9163 C.ar    1  UNL1       -0.0039
      5 C          63.5862   90.6517   11.7510 C.ar    1  UNL1       -0.0178
      6 C          63.2861   89.6651   12.8403 C.ar    1  UNL1       -0.0039
      7 C          62.9526   90.8933   10.4131 C.3     1  UNL1        0.0523
      8 C          63.6836   92.0238    9.7514 C.2     1  UNL1       -0.0214
      9 C          64.7689   92.4809   10.6804 C.2     1  UNL1       -0.0027
     10 F          62.9077   85.7128   18.4515 F       1  UNL1       -0.2042
     11 C          63.2079   86.6995   17.3624 C.ar    1  UNL1        0.1401
     12 C          62.8703   88.1490   17.5495 C.ar    1  UNL1        0.0296
     13 C          63.1704   89.1357   16.4603 C.ar    1  UNL1        0.0023
     14 C          63.8082   88.6729   15.1840 C.ar    1  UNL1        0.0001
     15 C          64.1459   87.2234   14.9968 C.ar    1  UNL1        0.0023
     16 C          63.8457   86.2367   16.0860 C.ar    1  UNL1        0.0296
     17 C          65.7433   93.5911   10.4195 C.ar    1  UNL1        0.0189
     18 C          65.3783   95.0052   10.7618 C.ar    1  UNL1        0.0031
     19 C          66.3528   96.1152   10.5008 C.ar    1  UNL1        0.0207
     20 C          67.6921   95.8113    9.8976 C.ar    1  UNL1        0.0989
     21 N          68.0570   94.3972    9.5554 N.ar    1  UNL1       -0.2423
     22 C          67.0826   93.2871    9.8163 C.ar    1  UNL1        0.0988
@<TRIPOS>BOND
     1    10    11    1
     2    11    12   ar
     3    12    13   ar
     4    13    14   ar
     5    14     1    1
     6     1     2   ar
     7     2     3   ar
     8     3     4   ar
     9     4     5   ar
    10     5     6   ar
    11     5     7    1
    12     7     8    1
    13     8     9    2
    14     9    17    1
    15    17    18   ar
    16    18    19   ar
    17    19    20   ar
    18    20    21   ar
    19    21    22   ar
    20    14    15   ar
    21    15    16   ar
    22    16    11   ar
    23     6     1   ar
    24    22    17   ar
    25     9     4    1
