@<TRIPOS>MOLECULE
*****
 39 43 0 0 0
SMALL
GASTEIGER

@<TRIPOS>ATOM
      1 C          60.7017   87.8075    8.5769 C.ar    1  UNL1        0.0044
      2 C          60.1423   87.7731    7.1854 C.ar    1  UNL1        0.0001
      3 C          59.3411   88.9318    6.6703 C.ar    1  UNL1        0.0000
      4 C          59.0991   90.1250    7.5467 C.ar    1  UNL1        0.0001
      5 C          59.6584   90.1594    8.9381 C.ar    1  UNL1        0.0045
      6 C          60.4597   89.0006    9.4531 C.ar    1  UNL1        0.0536
      7 C          61.0190   89.0351   10.8446 C.2     1  UNL1        0.2490
      8 O          60.4055   88.1890   11.9206 O.2     1  UNL1       -0.2699
      9 N          62.1917   89.9155   11.1599 N.am    1  UNL1       -0.2760
     10 C          62.8052   90.7615   10.0839 C.3     1  UNL1        0.0954
     11 C          63.9780   91.6419   10.3992 C.3     1  UNL1        0.0410
     12 C          64.5373   91.6763   11.7907 C.3     1  UNL1        0.0724
     13 C          63.9238   90.8303   12.8667 C.3     1  UNL1        0.0410
     14 C          62.7510   89.9499   12.5513 C.3     1  UNL1        0.0954
     15 N          65.7100   92.5567   12.1060 N.pl3   1  UNL1       -0.3339
     16 H          66.1568   92.4871   12.9806 H       1  UNL1        0.1468
     17 C          66.2022   93.5433   11.0890 C.ar    1  UNL1        0.0447
     18 C          67.1696   93.1079   10.0286 C.ar    1  UNL1        0.0152
     19 C          67.6617   94.0944    9.0115 C.ar    1  UNL1        0.0127
     20 C          67.1864   95.5165    9.0548 C.ar    1  UNL1        0.0578
     21 CL         67.6786   96.5030    8.0377 Cl      1  UNL1       -0.0822
     22 C          66.2191   95.9519   10.1152 C.ar    1  UNL1        0.0127
     23 C          65.7269   94.9653   11.1323 C.ar    1  UNL1        0.0152
     24 C          63.1055   84.3314   10.1221 C.ar    1  UNL1       -0.0061
     25 C          63.3715   84.8764    8.7501 C.ar    1  UNL1       -0.0029
     26 C          62.5703   86.0351    8.2350 C.ar    1  UNL1       -0.0003
     27 C          61.5029   86.6488    9.0919 C.ar    1  UNL1        0.0001
     28 C          61.2370   86.1039   10.4639 C.ar    1  UNL1       -0.0003
     29 C          62.0383   84.9451   10.9790 C.ar    1  UNL1       -0.0029
     30 C          63.9068   83.1727   10.6372 C.3     1  UNL1        0.0992
     31 C          62.0843   79.4175   13.7319 C.3     1  UNL1        0.0186
     32 C          62.7370   80.7571   13.5607 C.3     1  UNL1        0.0702
     33 C          62.9956   81.2951   12.1846 C.3     1  UNL1        0.0882
     34 N          63.6483   82.6347   12.0134 N.3     1  UNL1       -0.2666
     35 C          64.0424   83.4365   13.2183 C.3     1  UNL1        0.0882
     36 C          63.7838   82.8985   14.5944 C.3     1  UNL1        0.0702
     37 C          64.1780   83.7003   15.7994 C.3     1  UNL1        0.0186
     38 N          63.1312   81.5589   14.7656 N.3     1  UNL1       -0.2974
     39 H          62.2811   81.7127   15.3079 H       1  UNL1        0.1232
@<TRIPOS>BOND
     1    32    31    1
     2    32    33    1
     3    33    34    1
     4    34    30    1
     5    30    24    1
     6    24    25   ar
     7    25    26   ar
     8    26    27   ar
     9    27     1    1
    10     1     2   ar
    11     2     3   ar
    12     3     4   ar
    13     4     5   ar
    14     5     6   ar
    15     6     7    1
    16     7     8    2
    17     7     9   am
    18     9    10    1
    19    10    11    1
    20    11    12    1
    21    12    15    1
    22    15    17    1
    23    17    18   ar
    24    18    19   ar
    25    19    20   ar
    26    20    21    1
    27    20    22   ar
    28    22    23   ar
    29    12    13    1
    30    13    14    1
    31    27    28   ar
    32    28    29   ar
    33    34    35    1
    34    35    36    1
    35    36    37    1
    36    36    38    1
    37    38    32    1
    38    29    24   ar
    39     6     1   ar
    40    14     9    1
    41    23    17   ar
    42    15    16    1
    43    38    39    1
@<TRIPOS>MOLECULE
*****
 39 43 0 0 0
SMALL
GASTEIGER

@<TRIPOS>ATOM
      1 C          64.7361   91.1673   13.2326 C.ar    1  UNL1        0.0044
      2 C          65.7023   91.8436   12.3056 C.ar    1  UNL1        0.0001
      3 C          66.8835   92.5820   12.8618 C.ar    1  UNL1        0.0000
      4 C          67.0986   92.6442   14.3450 C.ar    1  UNL1        0.0001
      5 C          66.1325   91.9679   15.2720 C.ar    1  UNL1        0.0045
      6 C          64.9513   91.2295   14.7157 C.ar    1  UNL1        0.0536
      7 C          63.9851   90.5532   15.6428 C.2     1  UNL1        0.2490
      8 O          63.0525   91.3741   16.4832 O.2     1  UNL1       -0.2699
      9 N          63.9517   89.0561   15.7293 N.am    1  UNL1       -0.2760
     10 C          64.8843   88.2352   14.8889 C.3     1  UNL1        0.0954
     11 C          64.8509   86.7381   14.9755 C.3     1  UNL1        0.0410
     12 C          63.8848   86.0618   15.9025 C.3     1  UNL1        0.0724
     13 C          62.9521   86.8827   16.7429 C.3     1  UNL1        0.0410
     14 C          62.9856   88.3799   16.6563 C.3     1  UNL1        0.0954
     15 N          63.8513   84.5647   15.9891 N.pl3   1  UNL1       -0.3339
     16 H          63.9769   84.1190   16.8579 H       1  UNL1        0.1468
     17 C          63.6266   83.7468   14.7520 C.ar    1  UNL1        0.0447
     18 C          64.5475   83.8950   13.5773 C.ar    1  UNL1        0.0152
     19 C          64.3228   83.0771   12.3402 C.ar    1  UNL1        0.0127
     20 C          63.1772   82.1108   12.2778 C.ar    1  UNL1        0.0578
     21 CL         62.9525   81.2929   11.0406 Cl      1  UNL1       -0.0822
     22 C          62.2563   81.9625   13.4524 C.ar    1  UNL1        0.0127
     23 C          62.4810   82.7805   14.6896 C.ar    1  UNL1        0.0152
     24 C          61.1924   88.9519   11.5639 C.ar    1  UNL1       -0.0061
     25 C          62.4543   88.2100   11.8918 C.ar    1  UNL1       -0.0029
     26 C          63.6355   88.9485   12.4481 C.ar    1  UNL1       -0.0003
     27 C          63.5549   90.4288   12.6764 C.ar    1  UNL1        0.0001
     28 C          62.2931   91.1707   12.3485 C.ar    1  UNL1       -0.0003
     29 C          61.1119   90.4322   11.7923 C.ar    1  UNL1       -0.0029
     30 C          60.0112   88.2135   11.0077 C.3     1  UNL1        0.0992
     31 C          60.5364   84.9670    6.9847 C.3     1  UNL1        0.0186
     32 C          60.1830   86.3216    7.5232 C.3     1  UNL1        0.0702
     33 C          60.2738   86.5903    8.9962 C.3     1  UNL1        0.0882
     34 N          59.9203   87.9449    9.5347 N.3     1  UNL1       -0.2666
     35 C          59.4760   89.0309    8.6003 C.3     1  UNL1        0.0882
     36 C          59.3851   88.7623    7.1274 C.3     1  UNL1        0.0702
     37 C          58.9408   89.8483    6.1930 C.3     1  UNL1        0.0186
     38 N          59.7386   87.4077    6.5889 N.3     1  UNL1       -0.2974
     39 H          60.4939   87.5457    5.9174 H       1  UNL1        0.1232
@<TRIPOS>BOND
     1    32    31    1
     2    32    33    1
     3    33    34    1
     4    34    30    1
     5    30    24    1
     6    24    25   ar
     7    25    26   ar
     8    26    27   ar
     9    27     1    1
    10     1     2   ar
    11     2     3   ar
    12     3     4   ar
    13     4     5   ar
    14     5     6   ar
    15     6     7    1
    16     7     8    2
    17     7     9   am
    18     9    10    1
    19    10    11    1
    20    11    12    1
    21    12    15    1
    22    15    17    1
    23    17    18   ar
    24    18    19   ar
    25    19    20   ar
    26    20    21    1
    27    20    22   ar
    28    22    23   ar
    29    12    13    1
    30    13    14    1
    31    27    28   ar
    32    28    29   ar
    33    34    35    1
    34    35    36    1
    35    36    37    1
    36    36    38    1
    37    38    32    1
    38    29    24   ar
    39     6     1   ar
    40    14     9    1
    41    23    17   ar
    42    15    16    1
    43    38    39    1
@<TRIPOS>MOLECULE
*****
 39 43 0 0 0
SMALL
GASTEIGER

@<TRIPOS>ATOM
      1 C          60.6921   87.7140    8.5593 C.ar    1  UNL1        0.0044
      2 C          60.0555   87.6097    7.2051 C.ar    1  UNL1        0.0001
      3 C          59.2331   88.7459    6.6734 C.ar    1  UNL1        0.0000
      4 C          59.0473   89.9865    7.4960 C.ar    1  UNL1        0.0001
      5 C          59.6839   90.0908    8.8502 C.ar    1  UNL1        0.0045
      6 C          60.5062   88.9545    9.3819 C.ar    1  UNL1        0.0536
      7 C          61.1428   89.0589   10.7361 C.2     1  UNL1        0.2490
      8 O          60.6459   88.2066   11.8661 O.2     1  UNL1       -0.2699
      9 N          62.2762   90.0154   10.9604 N.am    1  UNL1       -0.2760
     10 C          62.7731   90.8677    9.8305 C.3     1  UNL1        0.0954
     11 C          63.9065   91.8242   10.0548 C.3     1  UNL1        0.0410
     12 C          64.5431   91.9285   11.4091 C.3     1  UNL1        0.0724
     13 C          64.0462   91.0763   12.5390 C.3     1  UNL1        0.0410
     14 C          62.9127   90.1197   12.3146 C.3     1  UNL1        0.0954
     15 N          65.6765   92.8851   11.6334 N.pl3   1  UNL1       -0.3339
     16 H          65.8462   93.6076   10.9865 H       1  UNL1        0.1468
     17 C          66.5514   92.7408   12.8432 C.ar    1  UNL1        0.0447
     18 C          67.7572   91.8500   12.7949 C.ar    1  UNL1        0.0152
     19 C          68.6321   91.7057   14.0048 C.ar    1  UNL1        0.0127
     20 C          68.3012   92.4523   15.2629 C.ar    1  UNL1        0.0578
     21 CL         69.1761   92.3081   16.4728 Cl      1  UNL1       -0.0822
     22 C          67.0954   93.3432   15.3112 C.ar    1  UNL1        0.0127
     23 C          66.2205   93.4874   14.1014 C.ar    1  UNL1        0.0152
     24 C          63.1592   84.3054   10.1544 C.ar    1  UNL1       -0.0061
     25 C          63.4261   84.8459    8.7808 C.ar    1  UNL1       -0.0029
     26 C          62.6037   85.9821    8.2491 C.ar    1  UNL1       -0.0003
     27 C          61.5145   86.5778    9.0910 C.ar    1  UNL1        0.0001
     28 C          61.2476   86.0373   10.4645 C.ar    1  UNL1       -0.0003
     29 C          62.0700   84.9011   10.9962 C.ar    1  UNL1       -0.0029
     30 C          63.9816   83.1691   10.6861 C.3     1  UNL1        0.0992
     31 C          64.1755   83.6645   15.8549 C.3     1  UNL1        0.0186
     32 C          63.8037   82.8683   14.6393 C.3     1  UNL1        0.0702
     33 C          64.0785   83.4168   13.2705 C.3     1  UNL1        0.0882
     34 N          63.7067   82.6206   12.0549 N.3     1  UNL1       -0.2666
     35 C          63.0601   81.2759   12.2080 C.3     1  UNL1        0.0882
     36 C          62.7852   80.7274   13.5768 C.3     1  UNL1        0.0702
     37 C          62.1385   79.3826   13.7300 C.3     1  UNL1        0.0186
     38 N          63.1570   81.5236   14.7924 N.3     1  UNL1       -0.2974
     39 H          63.7999   80.9479   15.3362 H       1  UNL1        0.1232
@<TRIPOS>BOND
     1    32    31    1
     2    32    33    1
     3    33    34    1
     4    34    30    1
     5    30    24    1
     6    24    25   ar
     7    25    26   ar
     8    26    27   ar
     9    27     1    1
    10     1     2   ar
    11     2     3   ar
    12     3     4   ar
    13     4     5   ar
    14     5     6   ar
    15     6     7    1
    16     7     8    2
    17     7     9   am
    18     9    10    1
    19    10    11    1
    20    11    12    1
    21    12    15    1
    22    15    17    1
    23    17    18   ar
    24    18    19   ar
    25    19    20   ar
    26    20    21    1
    27    20    22   ar
    28    22    23   ar
    29    12    13    1
    30    13    14    1
    31    27    28   ar
    32    28    29   ar
    33    34    35    1
    34    35    36    1
    35    36    37    1
    36    36    38    1
    37    38    32    1
    38    29    24   ar
    39     6     1   ar
    40    14     9    1
    41    23    17   ar
    42    15    16    1
    43    38    39    1
@<TRIPOS>MOLECULE
*****
 39 43 0 0 0
SMALL
GASTEIGER

@<TRIPOS>ATOM
      1 C          60.8038   87.7685    8.7550 C.ar    1  UNL1        0.0044
      2 C          60.1943   87.7281    7.3850 C.ar    1  UNL1        0.0001
      3 C          59.3609   88.8774    6.9007 C.ar    1  UNL1        0.0000
      4 C          59.1370   90.0671    7.7865 C.ar    1  UNL1        0.0001
      5 C          59.7465   90.1075    9.1565 C.ar    1  UNL1        0.0045
      6 C          60.5799   88.9582    9.6407 C.ar    1  UNL1        0.0536
      7 C          61.1895   88.9986   11.0108 C.2     1  UNL1        0.2490
      8 O          60.6489   88.1183   12.0984 O.2     1  UNL1       -0.2699
      9 N          62.3395   89.9193   11.2931 N.am    1  UNL1       -0.2760
     10 C          62.8801   90.7996   10.2055 C.3     1  UNL1        0.0954
     11 C          64.0301   91.7202   10.4878 C.3     1  UNL1        0.0410
     12 C          64.6396   91.7606   11.8579 C.3     1  UNL1        0.0724
     13 C          64.0991   90.8804   12.9455 C.3     1  UNL1        0.0410
     14 C          62.9490   89.9597   12.6631 C.3     1  UNL1        0.0954
     15 N          65.7897   92.6813   12.1402 N.pl3   1  UNL1       -0.3339
     16 H          66.2559   92.6353   13.0061 H       1  UNL1        0.1468
     17 C          66.2293   93.6721   11.1033 C.ar    1  UNL1        0.0447
     18 C          67.0723   93.2231    9.9468 C.ar    1  UNL1        0.0152
     19 C          67.5119   94.2138    8.9099 C.ar    1  UNL1        0.0127
     20 C          67.1086   95.6536    9.0296 C.ar    1  UNL1        0.0578
     21 CL         67.5482   96.6443    7.9927 Cl      1  UNL1       -0.0822
     22 C          66.2656   96.1026   10.1862 C.ar    1  UNL1        0.0127
     23 C          65.8260   95.1118   11.2231 C.ar    1  UNL1        0.0152
     24 C          63.3042   84.3206   10.2078 C.ar    1  UNL1       -0.0061
     25 C          63.4926   84.8502    8.8170 C.ar    1  UNL1       -0.0029
     26 C          62.6592   85.9995    8.3328 C.ar    1  UNL1       -0.0003
     27 C          61.6373   86.6192    9.2393 C.ar    1  UNL1        0.0001
     28 C          61.4488   86.0897   10.6299 C.ar    1  UNL1       -0.0003
     29 C          62.2823   84.9404   11.1142 C.ar    1  UNL1       -0.0029
     30 C          64.1376   83.1713   10.6920 C.3     1  UNL1        0.0992
     31 C          61.5322   80.8380   14.5349 C.3     1  UNL1        0.0186
     32 C          62.1722   80.7838   13.1794 C.3     1  UNL1        0.0702
     33 C          62.8349   82.0046   12.6135 C.3     1  UNL1        0.0882
     34 N          63.4749   81.9504   11.2580 N.3     1  UNL1       -0.2666
     35 C          63.4523   80.6753   10.4684 C.3     1  UNL1        0.0882
     36 C          62.7896   79.4544   11.0343 C.3     1  UNL1        0.0702
     37 C          62.7669   78.1792   10.2447 C.3     1  UNL1        0.0186
     38 N          62.1496   79.5086   12.3898 N.3     1  UNL1       -0.2974
     39 H          62.6099   78.8002   12.9613 H       1  UNL1        0.1232
@<TRIPOS>BOND
     1    32    31    1
     2    32    33    1
     3    33    34    1
     4    34    30    1
     5    30    24    1
     6    24    25   ar
     7    25    26   ar
     8    26    27   ar
     9    27     1    1
    10     1     2   ar
    11     2     3   ar
    12     3     4   ar
    13     4     5   ar
    14     5     6   ar
    15     6     7    1
    16     7     8    2
    17     7     9   am
    18     9    10    1
    19    10    11    1
    20    11    12    1
    21    12    15    1
    22    15    17    1
    23    17    18   ar
    24    18    19   ar
    25    19    20   ar
    26    20    21    1
    27    20    22   ar
    28    22    23   ar
    29    12    13    1
    30    13    14    1
    31    27    28   ar
    32    28    29   ar
    33    34    35    1
    34    35    36    1
    35    36    37    1
    36    36    38    1
    37    38    32    1
    38    29    24   ar
    39     6     1   ar
    40    14     9    1
    41    23    17   ar
    42    15    16    1
    43    38    39    1
