@<TRIPOS>MOLECULE
*****
 29 31 0 0 0
SMALL
GASTEIGER

@<TRIPOS>ATOM
      1 N          63.1211   88.8941   12.4969 N.pl3   1  UNL1       -0.2872
      2 C          63.8233   83.1776   14.1784 C.2     1  UNL1        0.2247
      3 O          64.5733   82.8524   15.4361 O.2     1  UNL1       -0.2749
      4 N          63.6478   84.6067   13.7580 N.am    1  UNL1       -0.2794
      5 C          62.8978   84.9318   12.5004 C.3     1  UNL1        0.0951
      6 C          62.7223   86.3610   12.0800 C.3     1  UNL1        0.0416
      7 C          63.2967   87.4650   12.9173 C.3     1  UNL1        0.0807
      8 C          64.0466   87.1399   14.1750 C.3     1  UNL1        0.0416
      9 C          64.2222   85.7107   14.5953 C.3     1  UNL1        0.0951
     10 C          64.4229   82.1672   12.4122 C.3     1  UNL1        0.0091
     11 C          63.2489   82.0735   13.3411 C.3     1  UNL1        0.0691
     12 C          62.0749   81.9798   14.2700 C.3     1  UNL1        0.0091
     13 C          62.6744   80.9694   12.5038 C.3     1  UNL1        0.0091
     14 C          64.0337   89.9533   13.0404 C.ar    1  UNL1        0.0515
     15 C          64.3470   91.1678   12.2176 C.ar    1  UNL1        0.0148
     16 C          65.2596   92.2269   12.7610 C.ar    1  UNL1        0.0051
     17 C          65.8589   92.0716   14.1273 C.ar    1  UNL1        0.0715
     18 C          65.5456   90.8572   14.9501 C.ar    1  UNL1        0.0051
     19 C          64.6330   89.7980   14.4067 C.ar    1  UNL1        0.0148
     20 C          66.7715   93.1309   14.6708 C.3     1  UNL1        0.4186
     21 F          67.6840   94.1901   15.2142 F       1  UNL1       -0.1659
     22 F          67.2165   92.1923   15.7529 F       1  UNL1       -0.1659
     23 F          66.3265   94.0694   13.5886 F       1  UNL1       -0.1659
     24 C          62.0330   89.2642   11.5331 C.ar    1  UNL1        0.0710
     25 C          62.1823   88.9453   10.0750 C.ar    1  UNL1        0.0180
     26 C          61.0941   89.3153    9.1111 C.ar    1  UNL1        0.0220
     27 C          59.8567   90.0042    9.6053 C.ar    1  UNL1        0.0990
     28 N          59.7075   90.3231   11.0634 N.ar    1  UNL1       -0.2410
     29 C          60.7956   89.9531   12.0273 C.ar    1  UNL1        0.1136
@<TRIPOS>BOND
     1    10    11    1
     2    11    12    1
     3    11    13    1
     4    11     2    1
     5     2     3    2
     6     2     4   am
     7     4     5    1
     8     5     6    1
     9     6     7    1
    10     7     1    1
    11     1    14    1
    12    14    15   ar
    13    15    16   ar
    14    16    17   ar
    15    17    20    1
    16    20    21    1
    17    20    22    1
    18    20    23    1
    19    17    18   ar
    20    18    19   ar
    21     1    24    1
    22    24    25   ar
    23    25    26   ar
    24    26    27   ar
    25    27    28   ar
    26    28    29   ar
    27     7     8    1
    28     8     9    1
    29     9     4    1
    30    19    14   ar
    31    29    24   ar
@<TRIPOS>MOLECULE
*****
 29 31 0 0 0
SMALL
GASTEIGER

@<TRIPOS>ATOM
      1 N          63.2284   89.9149   12.2915 N.pl3   1  UNL1       -0.2872
      2 C          66.4075   94.8339   10.9891 C.2     1  UNL1        0.2247
      3 O          67.1458   95.5590   12.0749 O.2     1  UNL1       -0.2749
      4 N          65.6127   93.6041   11.3147 N.am    1  UNL1       -0.2794
      5 C          64.8745   92.8789   10.2289 C.3     1  UNL1        0.0951
      6 C          64.0797   91.6492   10.5545 C.3     1  UNL1        0.0416
      7 C          64.0232   91.1446   11.9659 C.3     1  UNL1        0.0807
      8 C          64.7614   91.8698   13.0518 C.3     1  UNL1        0.0416
      9 C          65.5562   93.0995   12.7261 C.3     1  UNL1        0.0951
     10 C          65.3092   96.2534    9.8585 C.3     1  UNL1        0.0091
     11 C          66.4641   95.3384    9.5777 C.3     1  UNL1        0.0691
     12 C          67.6190   94.4234    9.2968 C.3     1  UNL1        0.0091
     13 C          66.5207   95.8430    8.1662 C.3     1  UNL1        0.0091
     14 C          62.3226   89.3120   11.2590 C.ar    1  UNL1        0.0515
     15 C          61.1221   90.0723   10.7786 C.ar    1  UNL1        0.0148
     16 C          60.2164   89.4695    9.7460 C.ar    1  UNL1        0.0051
     17 C          60.5111   88.1063    9.1938 C.ar    1  UNL1        0.0715
     18 C          61.7116   87.3460    9.6742 C.ar    1  UNL1        0.0051
     19 C          62.6174   87.9489   10.7068 C.ar    1  UNL1        0.0148
     20 C          59.6054   87.5035    8.1612 C.3     1  UNL1        0.4186
     21 F          58.6996   86.9007    7.1287 F       1  UNL1       -0.1659
     22 F          59.9228   86.1333    8.6826 F       1  UNL1       -0.1659
     23 F          59.2879   88.8736    7.6399 F       1  UNL1       -0.1659
     24 C          63.3393   89.2880   13.6497 C.ar    1  UNL1        0.0710
     25 C          64.0986   88.0062   13.8244 C.ar    1  UNL1        0.0180
     26 C          64.2095   87.3793   15.1827 C.ar    1  UNL1        0.0220
     27 C          63.5611   88.0342   16.3661 C.ar    1  UNL1        0.0990
     28 N          62.8017   89.3159   16.1914 N.ar    1  UNL1       -0.2410
     29 C          62.6908   89.9428   14.8333 C.ar    1  UNL1        0.1136
@<TRIPOS>BOND
     1    10    11    1
     2    11    12    1
     3    11    13    1
     4    11     2    1
     5     2     3    2
     6     2     4   am
     7     4     5    1
     8     5     6    1
     9     6     7    1
    10     7     1    1
    11     1    14    1
    12    14    15   ar
    13    15    16   ar
    14    16    17   ar
    15    17    20    1
    16    20    21    1
    17    20    22    1
    18    20    23    1
    19    17    18   ar
    20    18    19   ar
    21     1    24    1
    22    24    25   ar
    23    25    26   ar
    24    26    27   ar
    25    27    28   ar
    26    28    29   ar
    27     7     8    1
    28     8     9    1
    29     9     4    1
    30    19    14   ar
    31    29    24   ar
@<TRIPOS>MOLECULE
*****
 29 31 0 0 0
SMALL
GASTEIGER

@<TRIPOS>ATOM
      1 N          65.5323   92.0974   12.4661 N.pl3   1  UNL1       -0.2872
      2 C          61.4185   87.9776   11.0155 C.2     1  UNL1        0.2247
      3 O          61.1764   86.8077   11.9225 O.2     1  UNL1       -0.2749
      4 N          62.4469   89.0075   11.3781 N.am    1  UNL1       -0.2794
      5 C          62.6890   90.1774   10.4711 C.3     1  UNL1        0.0951
      6 C          63.7175   91.2074   10.8338 C.3     1  UNL1        0.0416
      7 C          64.5038   91.0674   12.1034 C.3     1  UNL1        0.0807
      8 C          64.2617   89.8975   13.0104 C.3     1  UNL1        0.0416
      9 C          63.2332   88.8676   12.6478 C.3     1  UNL1        0.0951
     10 C          59.8380   89.2318   10.3605 C.3     1  UNL1        0.0091
     11 C          60.6321   88.1176    9.7458 C.3     1  UNL1        0.0691
     12 C          61.4262   87.0033    9.1312 C.3     1  UNL1        0.0091
     13 C          59.8458   88.2575    8.4761 C.3     1  UNL1        0.0091
     14 C          66.0408   93.0488   11.4240 C.ar    1  UNL1        0.0515
     15 C          65.6404   94.4937   11.4682 C.ar    1  UNL1        0.0148
     16 C          66.1489   95.4452   10.4260 C.ar    1  UNL1        0.0051
     17 C          67.0579   94.9517    9.3396 C.ar    1  UNL1        0.0715
     18 C          67.4583   93.5069    9.2954 C.ar    1  UNL1        0.0051
     19 C          66.9498   92.5554   10.3375 C.ar    1  UNL1        0.0148
     20 C          67.5665   95.9033    8.2975 C.3     1  UNL1        0.4186
     21 F          68.0750   96.8547    7.2553 F       1  UNL1       -0.1659
     22 F          67.9963   96.8540    9.3751 F       1  UNL1       -0.1659
     23 F          67.1367   94.9526    7.2198 F       1  UNL1       -0.1659
     24 C          66.0521   92.1759   13.8709 C.ar    1  UNL1        0.0710
     25 C          67.5258   92.0755   14.1319 C.ar    1  UNL1        0.0180
     26 C          68.0457   92.1540   15.5368 C.ar    1  UNL1        0.0220
     27 C          67.0919   92.3329   16.6806 C.ar    1  UNL1        0.0990
     28 N          65.6182   92.4333   16.4195 N.ar    1  UNL1       -0.2410
     29 C          65.0983   92.3548   15.0147 C.ar    1  UNL1        0.1136
@<TRIPOS>BOND
     1    10    11    1
     2    11    12    1
     3    11    13    1
     4    11     2    1
     5     2     3    2
     6     2     4   am
     7     4     5    1
     8     5     6    1
     9     6     7    1
    10     7     1    1
    11     1    14    1
    12    14    15   ar
    13    15    16   ar
    14    16    17   ar
    15    17    20    1
    16    20    21    1
    17    20    22    1
    18    20    23    1
    19    17    18   ar
    20    18    19   ar
    21     1    24    1
    22    24    25   ar
    23    25    26   ar
    24    26    27   ar
    25    27    28   ar
    26    28    29   ar
    27     7     8    1
    28     8     9    1
    29     9     4    1
    30    19    14   ar
    31    29    24   ar
@<TRIPOS>MOLECULE
*****
 29 31 0 0 0
SMALL
GASTEIGER

@<TRIPOS>ATOM
      1 N          62.3618   87.9256   11.0562 N.pl3   1  UNL1       -0.2872
      2 C          63.3856   82.8187   14.0347 C.2     1  UNL1        0.2247
      3 O          64.0921   82.8507   15.3575 O.2     1  UNL1       -0.2749
      4 N          63.1297   84.0955   13.2901 N.am    1  UNL1       -0.2794
      5 C          62.4232   84.0635   11.9673 C.3     1  UNL1        0.0951
      6 C          62.1673   85.3402   11.2226 C.3     1  UNL1        0.0416
      7 C          62.6177   86.6489   11.8008 C.3     1  UNL1        0.0807
      8 C          63.3242   86.6809   13.1236 C.3     1  UNL1        0.0416
      9 C          63.5801   85.4042   13.8683 C.3     1  UNL1        0.0951
     10 C          61.6788   81.5819   14.2729 C.3     1  UNL1        0.0091
     11 C          62.9352   81.5100   13.4566 C.3     1  UNL1        0.0691
     12 C          64.1915   81.4382   12.6403 C.3     1  UNL1        0.0091
     13 C          62.4847   80.2013   12.8784 C.3     1  UNL1        0.0091
     14 C          63.1039   89.1741   11.4309 C.ar    1  UNL1        0.0515
     15 C          63.5985   89.3598   12.8348 C.ar    1  UNL1        0.0148
     16 C          64.3407   90.6083   13.2095 C.ar    1  UNL1        0.0051
     17 C          64.5882   91.6711   12.1803 C.ar    1  UNL1        0.0715
     18 C          64.0935   91.4855   10.7765 C.ar    1  UNL1        0.0051
     19 C          63.3514   90.2369   10.4017 C.ar    1  UNL1        0.0148
     20 C          65.3303   92.9197   12.5551 C.3     1  UNL1        0.4186
     21 F          66.0724   94.1682   12.9299 F       1  UNL1       -0.1659
     22 F          65.1335   93.4533   11.1671 F       1  UNL1       -0.1659
     23 F          65.5271   92.3861   13.9430 F       1  UNL1       -0.1659
     24 C          61.3637   87.9538    9.9368 C.ar    1  UNL1        0.0710
     25 C          61.0959   86.7119    9.1393 C.ar    1  UNL1        0.0180
     26 C          60.0977   86.7402    8.0199 C.ar    1  UNL1        0.0220
     27 C          59.3674   88.0102    7.6981 C.ar    1  UNL1        0.0990
     28 N          59.6352   89.2521    8.4956 N.ar    1  UNL1       -0.2410
     29 C          60.6333   89.2239    9.6150 C.ar    1  UNL1        0.1136
@<TRIPOS>BOND
     1    10    11    1
     2    11    12    1
     3    11    13    1
     4    11     2    1
     5     2     3    2
     6     2     4   am
     7     4     5    1
     8     5     6    1
     9     6     7    1
    10     7     1    1
    11     1    14    1
    12    14    15   ar
    13    15    16   ar
    14    16    17   ar
    15    17    20    1
    16    20    21    1
    17    20    22    1
    18    20    23    1
    19    17    18   ar
    20    18    19   ar
    21     1    24    1
    22    24    25   ar
    23    25    26   ar
    24    26    27   ar
    25    27    28   ar
    26    28    29   ar
    27     7     8    1
    28     8     9    1
    29     9     4    1
    30    19    14   ar
    31    29    24   ar
@<TRIPOS>MOLECULE
*****
 29 31 0 0 0
SMALL
GASTEIGER

@<TRIPOS>ATOM
      1 N          62.8790   88.2313   12.0084 N.pl3   1  UNL1       -0.2872
      2 C          63.6724   82.7247   14.2553 C.2     1  UNL1        0.2247
      3 O          64.4732   82.5346   15.5093 O.2     1  UNL1       -0.2749
      4 N          63.4741   84.1014   13.6936 N.am    1  UNL1       -0.2794
      5 C          62.6733   84.2915   12.4396 C.3     1  UNL1        0.0951
      6 C          62.4749   85.6681   11.8779 C.3     1  UNL1        0.0416
      7 C          63.0774   86.8546   12.5701 C.3     1  UNL1        0.0807
      8 C          63.8782   86.6645   13.8241 C.3     1  UNL1        0.0416
      9 C          64.0765   85.2879   14.3858 C.3     1  UNL1        0.0951
     10 C          61.8455   81.6596   14.4209 C.3     1  UNL1        0.0091
     11 C          63.0700   81.5383   13.5631 C.3     1  UNL1        0.0691
     12 C          64.2945   81.4170   12.7053 C.3     1  UNL1        0.0091
     13 C          62.4675   80.3517   12.8708 C.3     1  UNL1        0.0091
     14 C          61.9895   88.4345   10.8179 C.ar    1  UNL1        0.0515
     15 C          61.0298   89.5870   10.7867 C.ar    1  UNL1        0.0148
     16 C          60.1403   89.7902    9.5962 C.ar    1  UNL1        0.0051
     17 C          60.2104   88.8411    8.4368 C.ar    1  UNL1        0.0715
     18 C          61.1701   87.6887    8.4679 C.ar    1  UNL1        0.0051
     19 C          62.0596   87.4854    9.6584 C.ar    1  UNL1        0.0148
     20 C          59.3208   89.0444    7.2462 C.3     1  UNL1        0.4186
     21 F          58.4313   89.2477    6.0557 F       1  UNL1       -0.1659
     22 F          58.4560   87.9050    7.6977 F       1  UNL1       -0.1659
     23 F          60.1856   90.1838    6.7947 F       1  UNL1       -0.1659
     24 C          63.5702   89.4046   12.6372 C.ar    1  UNL1        0.0710
     25 C          64.1624   89.2791   14.0096 C.ar    1  UNL1        0.0180
     26 C          64.8536   90.4526   14.6384 C.ar    1  UNL1        0.0220
     27 C          64.9526   91.7515   13.8947 C.ar    1  UNL1        0.0990
     28 N          64.3604   91.8770   12.5223 N.ar    1  UNL1       -0.2410
     29 C          63.6692   90.7036   11.8935 C.ar    1  UNL1        0.1136
@<TRIPOS>BOND
     1    10    11    1
     2    11    12    1
     3    11    13    1
     4    11     2    1
     5     2     3    2
     6     2     4   am
     7     4     5    1
     8     5     6    1
     9     6     7    1
    10     7     1    1
    11     1    14    1
    12    14    15   ar
    13    15    16   ar
    14    16    17   ar
    15    17    20    1
    16    20    21    1
    17    20    22    1
    18    20    23    1
    19    17    18   ar
    20    18    19   ar
    21     1    24    1
    22    24    25   ar
    23    25    26   ar
    24    26    27   ar
    25    27    28   ar
    26    28    29   ar
    27     7     8    1
    28     8     9    1
    29     9     4    1
    30    19    14   ar
    31    29    24   ar
@<TRIPOS>MOLECULE
*****
 29 31 0 0 0
SMALL
GASTEIGER

@<TRIPOS>ATOM
      1 N          62.8539   88.4704   12.0713 N.pl3   1  UNL1       -0.2872
      2 C          66.3325   92.8510   14.2416 C.2     1  UNL1        0.2247
      3 O          66.3908   94.1775   13.5440 O.2     1  UNL1       -0.2749
      4 N          65.4628   91.7558   13.6991 N.am    1  UNL1       -0.2794
      5 C          65.4045   90.4293   14.3967 C.3     1  UNL1        0.0951
      6 C          64.5348   89.3341   13.8541 C.3     1  UNL1        0.0416
      7 C          63.7235   89.5655   12.6139 C.3     1  UNL1        0.0807
      8 C          63.7819   90.8921   11.9163 C.3     1  UNL1        0.0416
      9 C          64.6515   91.9873   12.4588 C.3     1  UNL1        0.0951
     10 C          65.9065   92.7618   16.3178 C.3     1  UNL1        0.0091
     11 C          67.1438   92.6195   15.4818 C.3     1  UNL1        0.0691
     12 C          68.3811   92.4773   14.6459 C.3     1  UNL1        0.0091
     13 C          67.9552   92.3881   16.7221 C.3     1  UNL1        0.0091
     14 C          63.0733   87.0524   12.5084 C.ar    1  UNL1        0.0515
     15 C          62.4881   85.9233   11.7129 C.ar    1  UNL1        0.0148
     16 C          62.7075   84.5053   12.1500 C.ar    1  UNL1        0.0051
     17 C          63.5120   84.2163   13.3825 C.ar    1  UNL1        0.0715
     18 C          64.0971   85.3453   14.1780 C.ar    1  UNL1        0.0051
     19 C          63.8778   86.7634   13.7410 C.ar    1  UNL1        0.0148
     20 C          63.7313   82.7982   13.8196 C.3     1  UNL1        0.4186
     21 F          63.9507   81.3802   14.2566 F       1  UNL1       -0.1659
     22 F          63.1265   82.3093   12.5370 F       1  UNL1       -0.1659
     23 F          64.3361   83.2871   15.1022 F       1  UNL1       -0.1659
     24 C          61.7649   88.7933   11.0917 C.ar    1  UNL1        0.0710
     25 C          61.7713   88.1657    9.7293 C.ar    1  UNL1        0.0180
     26 C          60.6822   88.4886    8.7497 C.ar    1  UNL1        0.0220
     27 C          59.5867   89.4391    9.1324 C.ar    1  UNL1        0.0990
     28 N          59.5803   90.0667   10.4948 N.ar    1  UNL1       -0.2410
     29 C          60.6693   89.7438   11.4744 C.ar    1  UNL1        0.1136
@<TRIPOS>BOND
     1    10    11    1
     2    11    12    1
     3    11    13    1
     4    11     2    1
     5     2     3    2
     6     2     4   am
     7     4     5    1
     8     5     6    1
     9     6     7    1
    10     7     1    1
    11     1    14    1
    12    14    15   ar
    13    15    16   ar
    14    16    17   ar
    15    17    20    1
    16    20    21    1
    17    20    22    1
    18    20    23    1
    19    17    18   ar
    20    18    19   ar
    21     1    24    1
    22    24    25   ar
    23    25    26   ar
    24    26    27   ar
    25    27    28   ar
    26    28    29   ar
    27     7     8    1
    28     8     9    1
    29     9     4    1
    30    19    14   ar
    31    29    24   ar
@<TRIPOS>MOLECULE
*****
 29 31 0 0 0
SMALL
GASTEIGER

@<TRIPOS>ATOM
      1 N          62.0861   86.7348   11.0543 N.pl3   1  UNL1       -0.2872
      2 C          64.7954   91.7217   13.0013 C.2     1  UNL1        0.2247
      3 O          64.7386   92.9755   12.1800 O.2     1  UNL1       -0.2749
      4 N          64.1181   90.4750   12.5146 N.am    1  UNL1       -0.2794
      5 C          64.1749   89.2211   13.3359 C.3     1  UNL1        0.0951
      6 C          63.4975   87.9744   12.8491 C.3     1  UNL1        0.0416
      7 C          62.7634   87.9815   11.5411 C.3     1  UNL1        0.0807
      8 C          62.7067   89.2354   10.7198 C.3     1  UNL1        0.0416
      9 C          63.3840   90.4821   11.2065 C.3     1  UNL1        0.0951
     10 C          66.8301   91.8784   13.5803 C.3     1  UNL1        0.0091
     11 C          65.5295   91.7145   14.3094 C.3     1  UNL1        0.0691
     12 C          64.2289   91.5507   15.0384 C.3     1  UNL1        0.0091
     13 C          66.2636   91.7074   15.6175 C.3     1  UNL1        0.0091
     14 C          62.4036   85.4127   11.6877 C.ar    1  UNL1        0.0515
     15 C          62.1920   85.2161   13.1597 C.ar    1  UNL1        0.0148
     16 C          62.5095   83.8940   13.7930 C.ar    1  UNL1        0.0051
     17 C          63.0385   82.7684   12.9545 C.ar    1  UNL1        0.0715
     18 C          63.2501   82.9649   11.4826 C.ar    1  UNL1        0.0051
     19 C          62.9326   84.2871   10.8491 C.ar    1  UNL1        0.0148
     20 C          63.3560   81.4462   13.5879 C.3     1  UNL1        0.4186
     21 F          63.6734   80.1241   14.2213 F       1  UNL1       -0.1659
     22 F          64.7005   81.4505   12.9231 F       1  UNL1       -0.1659
     23 F          62.0114   81.4420   14.2528 F       1  UNL1       -0.1659
     24 C          61.0914   86.8102    9.9342 C.ar    1  UNL1        0.0710
     25 C          61.3025   86.0024    8.6880 C.ar    1  UNL1        0.0180
     26 C          60.3076   86.0779    7.5679 C.ar    1  UNL1        0.0220
     27 C          59.1017   86.9610    7.6939 C.ar    1  UNL1        0.0990
     28 N          58.8906   87.7687    8.9401 N.ar    1  UNL1       -0.2410
     29 C          59.8854   87.6933   10.0602 C.ar    1  UNL1        0.1136
@<TRIPOS>BOND
     1    10    11    1
     2    11    12    1
     3    11    13    1
     4    11     2    1
     5     2     3    2
     6     2     4   am
     7     4     5    1
     8     5     6    1
     9     6     7    1
    10     7     1    1
    11     1    14    1
    12    14    15   ar
    13    15    16   ar
    14    16    17   ar
    15    17    20    1
    16    20    21    1
    17    20    22    1
    18    20    23    1
    19    17    18   ar
    20    18    19   ar
    21     1    24    1
    22    24    25   ar
    23    25    26   ar
    24    26    27   ar
    25    27    28   ar
    26    28    29   ar
    27     7     8    1
    28     8     9    1
    29     9     4    1
    30    19    14   ar
    31    29    24   ar
@<TRIPOS>MOLECULE
*****
 29 31 0 0 0
SMALL
GASTEIGER

@<TRIPOS>ATOM
      1 N          61.9420   87.5836   10.1180 N.pl3   1  UNL1       -0.2872
      2 C          63.6364   81.9508   11.3015 C.2     1  UNL1        0.2247
      3 O          64.2762   81.1191   10.2296 O.2     1  UNL1       -0.2749
      4 N          63.2128   83.3590   11.0056 N.am    1  UNL1       -0.2794
      5 C          62.5730   84.1906   12.0775 C.3     1  UNL1        0.0951
      6 C          62.1494   85.5988   11.7816 C.3     1  UNL1        0.0416
      7 C          62.3656   86.1754   10.4138 C.3     1  UNL1        0.0807
      8 C          63.0054   85.3437    9.3420 C.3     1  UNL1        0.0416
      9 C          63.4290   83.9355    9.6378 C.3     1  UNL1        0.0951
     10 C          62.4510   80.3822   12.0978 C.3     1  UNL1        0.0091
     11 C          63.4202   81.3742   12.6692 C.3     1  UNL1        0.0691
     12 C          64.3894   82.3663   13.2406 C.3     1  UNL1        0.0091
     13 C          63.2040   80.7977   14.0371 C.3     1  UNL1        0.0091
     14 C          62.6525   88.7330   10.7691 C.ar    1  UNL1        0.0515
     15 C          62.9062   89.9930    9.9957 C.ar    1  UNL1        0.0148
     16 C          63.6167   91.1424   10.6468 C.ar    1  UNL1        0.0051
     17 C          64.0735   91.0319   12.0713 C.ar    1  UNL1        0.0715
     18 C          63.8198   89.7720   12.8447 C.ar    1  UNL1        0.0051
     19 C          63.1093   88.6225   12.1935 C.ar    1  UNL1        0.0148
     20 C          64.7840   92.1814   12.7224 C.3     1  UNL1        0.4186
     21 F          65.4945   93.3309   13.3735 F       1  UNL1       -0.1659
     22 F          64.9087   92.8591   11.3901 F       1  UNL1       -0.1659
     23 F          64.6594   91.5037   14.0547 F       1  UNL1       -0.1659
     24 C          60.8079   87.8423    9.1710 C.ar    1  UNL1        0.0710
     25 C          60.5452   89.2345    8.6781 C.ar    1  UNL1        0.0180
     26 C          59.4110   89.4932    7.7310 C.ar    1  UNL1        0.0220
     27 C          58.5397   88.3599    7.2769 C.ar    1  UNL1        0.0990
     28 N          58.8024   86.9677    7.7699 N.ar    1  UNL1       -0.2410
     29 C          59.9365   86.7090    8.7168 C.ar    1  UNL1        0.1136
@<TRIPOS>BOND
     1    10    11    1
     2    11    12    1
     3    11    13    1
     4    11     2    1
     5     2     3    2
     6     2     4   am
     7     4     5    1
     8     5     6    1
     9     6     7    1
    10     7     1    1
    11     1    14    1
    12    14    15   ar
    13    15    16   ar
    14    16    17   ar
    15    17    20    1
    16    20    21    1
    17    20    22    1
    18    20    23    1
    19    17    18   ar
    20    18    19   ar
    21     1    24    1
    22    24    25   ar
    23    25    26   ar
    24    26    27   ar
    25    27    28   ar
    26    28    29   ar
    27     7     8    1
    28     8     9    1
    29     9     4    1
    30    19    14   ar
    31    29    24   ar
