@<TRIPOS>MOLECULE
*****
 30 34 0 0 0
SMALL
GASTEIGER

@<TRIPOS>ATOM
      1 O          62.4899   85.1612   14.9206 O.3     1  UNL1       -0.4630
      2 C          63.1753   80.1553   13.7073 C.3     1  UNL1        0.0308
      3 C          62.9882   81.5813   13.2814 C.ar    1  UNL1       -0.0231
      4 C          62.8326   82.6583   14.3140 C.ar    1  UNL1        0.0324
      5 C          62.6455   84.0843   13.8880 C.ar    1  UNL1        0.1402
      6 C          62.6139   84.4335   12.4296 C.ar    1  UNL1        0.0479
      7 C          62.7694   83.3565   11.3970 C.ar    1  UNL1       -0.0171
      8 C          62.9566   81.9305   11.8230 C.ar    1  UNL1       -0.0292
      9 C          63.1121   80.8537   10.7904 C.3     1  UNL1        0.0304
     10 C          62.6974   83.9986   10.0433 C.3     1  UNL1        0.0606
     11 C          62.4973   85.4722   10.2391 C.ar    1  UNL1        0.0308
     12 S          62.3291   86.7797    9.5235 S.2     1  UNL1       -0.0685
     13 C          62.1736   87.8565   10.5561 C.ar    1  UNL1        0.1342
     14 N          62.2456   87.2146   11.9098 N.ar    1  UNL1       -0.2365
     15 C          62.4457   85.7410   11.7140 C.ar    1  UNL1        0.0868
     16 C          63.7040   85.7831   15.5444 C.3     1  UNL1        0.3201
     17 P          64.0662   87.2036   15.2268 P.3     1  UNL1        0.3872
     18 O          64.8642   86.4902   14.1760 O.2     1  UNL1       -0.2539
     19 O          63.1424   87.4238   16.3879 O.3     1  UNL1       -0.2916
     20 C          62.8580   88.8166   16.8664 C.3     1  UNL1        0.1543
     21 C          63.4973   89.9894   16.1839 C.3     1  UNL1        0.0673
     22 C          64.4210   89.7693   15.0227 C.3     1  UNL1        0.1499
     23 O          64.7055   88.3764   14.5442 O.3     1  UNL1       -0.2896
     24 C          65.0604   90.9420   14.3401 C.ar    1  UNL1        0.0187
     25 C          66.2612   91.6019   14.9506 C.ar    1  UNL1        0.0008
     26 C          66.9006   92.7747   14.2680 C.ar    1  UNL1        0.0204
     27 C          66.3392   93.2875   12.9750 C.ar    1  UNL1        0.0984
     28 N          65.1384   92.6276   12.3646 N.ar    1  UNL1       -0.2484
     29 C          64.4990   91.4548   13.0472 C.ar    1  UNL1        0.0577
     30 C          63.2982   90.7949   12.4368 C.3     1  UNL1        0.0518
@<TRIPOS>BOND
     1     2     3    1
     2     3     4   ar
     3     4     5   ar
     4     5     1    1
     5     1    16    1
     6    17    16    1
     7    17    18    2
     8    17    19    1
     9    19    20    1
    10    20    21    1
    11    21    22    1
    12    22    24    1
    13    24    25   ar
    14    25    26   ar
    15    26    27   ar
    16    27    28   ar
    17    28    29   ar
    18    29    30    1
    19    22    23    1
    20     5     6   ar
    21     6     7   ar
    22     7     8   ar
    23     8     9    1
    24     7    10    1
    25    10    11    1
    26    11    12   ar
    27    12    13   ar
    28    13    14   ar
    29    14    15   ar
    30     8     3   ar
    31    15    11   ar
    32    23    17    1
    33    15     6    1
    34    29    24   ar
@<TRIPOS>MOLECULE
*****
 30 34 0 0 0
SMALL
GASTEIGER

@<TRIPOS>ATOM
      1 O          62.9143   89.6301   12.7150 O.3     1  UNL1       -0.4630
      2 C          64.8470   85.3309   14.9016 C.3     1  UNL1        0.0308
      3 C          64.0345   85.9885   13.8258 C.ar    1  UNL1       -0.0231
      4 C          63.8807   87.4806   13.8083 C.ar    1  UNL1        0.0324
      5 C          63.0681   88.1381   12.7324 C.ar    1  UNL1        0.1402
      6 C          62.4095   87.3039   11.6742 C.ar    1  UNL1        0.0479
      7 C          62.5634   85.8118   11.6917 C.ar    1  UNL1       -0.0171
      8 C          63.3758   85.1542   12.7675 C.ar    1  UNL1       -0.0292
      9 C          63.5296   83.6622   12.7849 C.3     1  UNL1        0.0304
     10 C          61.8030   85.2538   10.5252 C.3     1  UNL1        0.0606
     11 C          61.1793   86.4009    9.7868 C.ar    1  UNL1        0.0308
     12 S          60.3240   86.7649    8.6096 S.2     1  UNL1       -0.0685
     13 C          60.1702   88.2568    8.5921 C.ar    1  UNL1        0.1342
     14 N          60.9305   88.8149    9.7586 N.ar    1  UNL1       -0.2365
     15 C          61.5542   87.6679   10.4969 C.ar    1  UNL1        0.0868
     16 C          63.8985   90.4942   13.4464 C.3     1  UNL1        0.3201
     17 P          64.5998   91.6073   12.7259 P.3     1  UNL1        0.3872
     18 O          63.8030   91.0266   11.5954 O.2     1  UNL1       -0.2539
     19 O          65.1531   91.8014   14.1065 O.3     1  UNL1       -0.2916
     20 C          66.1309   92.9070   14.3740 C.3     1  UNL1        0.1543
     21 C          66.5555   93.8184   13.2609 C.3     1  UNL1        0.0673
     22 C          66.0023   93.6243   11.8803 C.3     1  UNL1        0.1499
     23 O          65.0244   92.5187   11.6127 O.3     1  UNL1       -0.2896
     24 C          66.4268   94.5357   10.7671 C.ar    1  UNL1        0.0187
     25 C          65.9125   95.9438   10.7132 C.ar    1  UNL1        0.0008
     26 C          66.3371   96.8551    9.6001 C.ar    1  UNL1        0.0204
     27 C          67.2758   96.3586    8.5409 C.ar    1  UNL1        0.0984
     28 N          67.7901   94.9505    8.5947 N.ar    1  UNL1       -0.2484
     29 C          67.3656   94.0391    9.7079 C.ar    1  UNL1        0.0577
     30 C          67.8799   92.6310    9.7618 C.3     1  UNL1        0.0518
@<TRIPOS>BOND
     1     2     3    1
     2     3     4   ar
     3     4     5   ar
     4     5     1    1
     5     1    16    1
     6    17    16    1
     7    17    18    2
     8    17    19    1
     9    19    20    1
    10    20    21    1
    11    21    22    1
    12    22    24    1
    13    24    25   ar
    14    25    26   ar
    15    26    27   ar
    16    27    28   ar
    17    28    29   ar
    18    29    30    1
    19    22    23    1
    20     5     6   ar
    21     6     7   ar
    22     7     8   ar
    23     8     9    1
    24     7    10    1
    25    10    11    1
    26    11    12   ar
    27    12    13   ar
    28    13    14   ar
    29    14    15   ar
    30     8     3   ar
    31    15    11   ar
    32    23    17    1
    33    15     6    1
    34    29    24   ar
@<TRIPOS>MOLECULE
*****
 30 34 0 0 0
SMALL
GASTEIGER

@<TRIPOS>ATOM
      1 O          63.6984   88.7234   13.4209 O.3     1  UNL1       -0.4630
      2 C          60.9018   88.8743    9.0441 C.3     1  UNL1        0.0308
      3 C          61.5947   88.0869   10.1164 C.ar    1  UNL1       -0.0231
      4 C          62.3001   88.7989   11.2325 C.ar    1  UNL1        0.0324
      5 C          62.9930   88.0114   12.3049 C.ar    1  UNL1        0.1402
      6 C          62.9804   86.5122   12.2613 C.ar    1  UNL1        0.0479
      7 C          62.2749   85.8002   11.1452 C.ar    1  UNL1       -0.0171
      8 C          61.5821   86.5876   10.0728 C.ar    1  UNL1       -0.0292
      9 C          60.8766   85.8756    8.9568 C.3     1  UNL1        0.0304
     10 C          62.4305   84.3246   11.3653 C.3     1  UNL1        0.0606
     11 C          63.2320   84.1246   12.6173 C.ar    1  UNL1        0.0308
     12 S          63.8235   83.0890   13.5270 S.2     1  UNL1       -0.0685
     13 C          64.5289   83.8009   14.6430 C.ar    1  UNL1        0.1342
     14 N          64.3734   85.2766   14.4230 N.ar    1  UNL1       -0.2365
     15 C          63.5719   85.4766   13.1710 C.ar    1  UNL1        0.0868
     16 C          63.4508   90.1845   13.6534 C.3     1  UNL1        0.3201
     17 P          64.3139   91.2083   12.9774 P.3     1  UNL1        0.3872
     18 O          63.1059   91.2588   12.0895 O.2     1  UNL1       -0.2539
     19 O          65.2221   90.8023   14.1000 O.3     1  UNL1       -0.2916
     20 C          66.5739   91.4376   14.2383 C.3     1  UNL1        0.1543
     21 C          67.0174   92.4789   13.2539 C.3     1  UNL1        0.0673
     22 C          66.1092   92.8850   12.1313 C.3     1  UNL1        0.1499
     23 O          64.7573   92.2496   11.9931 O.3     1  UNL1       -0.2896
     24 C          66.5526   93.9263   11.1470 C.ar    1  UNL1        0.0187
     25 C          66.1160   95.3515   11.3152 C.ar    1  UNL1        0.0008
     26 C          66.5595   96.3929   10.3308 C.ar    1  UNL1        0.0204
     27 C          67.4395   96.0092    9.1784 C.ar    1  UNL1        0.0984
     28 N          67.8761   94.5839    9.0102 N.ar    1  UNL1       -0.2484
     29 C          67.4326   93.5426    9.9946 C.ar    1  UNL1        0.0577
     30 C          67.8693   92.1174    9.8264 C.3     1  UNL1        0.0518
@<TRIPOS>BOND
     1     2     3    1
     2     3     4   ar
     3     4     5   ar
     4     5     1    1
     5     1    16    1
     6    17    16    1
     7    17    18    2
     8    17    19    1
     9    19    20    1
    10    20    21    1
    11    21    22    1
    12    22    24    1
    13    24    25   ar
    14    25    26   ar
    15    26    27   ar
    16    27    28   ar
    17    28    29   ar
    18    29    30    1
    19    22    23    1
    20     5     6   ar
    21     6     7   ar
    22     7     8   ar
    23     8     9    1
    24     7    10    1
    25    10    11    1
    26    11    12   ar
    27    12    13   ar
    28    13    14   ar
    29    14    15   ar
    30     8     3   ar
    31    15    11   ar
    32    23    17    1
    33    15     6    1
    34    29    24   ar
@<TRIPOS>MOLECULE
*****
 30 34 0 0 0
SMALL
GASTEIGER

@<TRIPOS>ATOM
      1 O          61.5218   88.6780   12.2055 O.3     1  UNL1       -0.4630
      2 C          59.4780   88.1331    7.4594 C.3     1  UNL1        0.0308
      3 C          60.2854   87.5821    8.5972 C.ar    1  UNL1       -0.0231
      4 C          60.4999   88.4056    9.8325 C.ar    1  UNL1        0.0324
      5 C          61.3073   87.8545   10.9703 C.ar    1  UNL1        0.1402
      6 C          61.9002   86.4802   10.8728 C.ar    1  UNL1        0.0479
      7 C          61.6856   85.6567    9.6374 C.ar    1  UNL1       -0.0171
      8 C          60.8782   86.2077    8.4996 C.ar    1  UNL1       -0.0292
      9 C          60.6637   85.3843    7.2644 C.3     1  UNL1        0.0304
     10 C          62.3882   84.3451    9.8270 C.3     1  UNL1        0.0606
     11 C          63.0370   84.3578   11.1794 C.ar    1  UNL1        0.0308
     12 S          63.8722   83.5551   12.1323 S.2     1  UNL1       -0.0685
     13 C          64.0867   84.3785   13.3675 C.ar    1  UNL1        0.1342
     14 N          63.3841   85.6902   13.1781 N.ar    1  UNL1       -0.2365
     15 C          62.7353   85.6774   11.8257 C.ar    1  UNL1        0.0868
     16 C          61.7880   90.1496   12.0891 C.3     1  UNL1        0.3201
     17 P          63.0870   90.7179   12.5785 P.3     1  UNL1        0.3872
     18 O          62.6310   90.0058   13.8175 O.2     1  UNL1       -0.2539
     19 O          63.0919   91.2326   11.1696 O.3     1  UNL1       -0.2916
     20 C          64.2375   92.0683   10.6804 C.3     1  UNL1        0.1543
     21 C          65.3782   92.3893   11.6001 C.3     1  UNL1        0.0673
     22 C          65.3732   91.8746   13.0091 C.3     1  UNL1        0.1499
     23 O          64.2276   91.0388   13.4983 O.3     1  UNL1       -0.2896
     24 C          66.5139   92.1955   13.9288 C.ar    1  UNL1        0.0187
     25 C          66.2411   92.6336   15.3373 C.ar    1  UNL1        0.0008
     26 C          67.3817   92.9545   16.2571 C.ar    1  UNL1        0.0204
     27 C          68.7950   92.8374   15.7685 C.ar    1  UNL1        0.0984
     28 N          69.0678   92.3994   14.3600 N.ar    1  UNL1       -0.2484
     29 C          67.9271   92.0784   13.4402 C.ar    1  UNL1        0.0577
     30 C          68.1999   91.6404   12.0317 C.3     1  UNL1        0.0518
@<TRIPOS>BOND
     1     2     3    1
     2     3     4   ar
     3     4     5   ar
     4     5     1    1
     5     1    16    1
     6    17    16    1
     7    17    18    2
     8    17    19    1
     9    19    20    1
    10    20    21    1
    11    21    22    1
    12    22    24    1
    13    24    25   ar
    14    25    26   ar
    15    26    27   ar
    16    27    28   ar
    17    28    29   ar
    18    29    30    1
    19    22    23    1
    20     5     6   ar
    21     6     7   ar
    22     7     8   ar
    23     8     9    1
    24     7    10    1
    25    10    11    1
    26    11    12   ar
    27    12    13   ar
    28    13    14   ar
    29    14    15   ar
    30     8     3   ar
    31    15    11   ar
    32    23    17    1
    33    15     6    1
    34    29    24   ar
@<TRIPOS>MOLECULE
*****
 30 34 0 0 0
SMALL
GASTEIGER

@<TRIPOS>ATOM
      1 O          63.1577   89.5926   14.7762 O.3     1  UNL1       -0.4630
      2 C          66.7024   93.1311   13.3929 C.3     1  UNL1        0.0308
      3 C          65.5405   92.2501   13.0413 C.ar    1  UNL1       -0.0231
      4 C          64.9300   91.3618   14.0846 C.ar    1  UNL1        0.0324
      5 C          63.7681   90.4807   13.7329 C.ar    1  UNL1        0.1402
      6 C          63.2167   90.4878   12.3380 C.ar    1  UNL1        0.0479
      7 C          63.8272   91.3760   11.2947 C.ar    1  UNL1       -0.0171
      8 C          64.9891   92.2571   11.6463 C.ar    1  UNL1       -0.0292
      9 C          65.5995   93.1453   10.6030 C.3     1  UNL1        0.0304
     10 C          63.0750   91.1705   10.0133 C.3     1  UNL1        0.0606
     11 C          61.9997   90.1554   10.2646 C.ar    1  UNL1        0.0308
     12 S          60.8703   89.4010    9.6279 S.2     1  UNL1       -0.0685
     13 C          60.2599   88.5128   10.6712 C.ar    1  UNL1        0.1342
     14 N          61.0120   88.7183   11.9527 N.ar    1  UNL1       -0.2365
     15 C          62.0873   89.7334   11.7014 C.ar    1  UNL1        0.0868
     16 C          63.9580   88.4699   15.3671 C.3     1  UNL1        0.3201
     17 P          63.6695   87.0527   14.9693 P.3     1  UNL1        0.3872
     18 O          64.2591   87.5676   13.6897 O.2     1  UNL1       -0.2539
     19 O          63.1800   87.0300   16.3870 O.3     1  UNL1       -0.2916
     20 C          62.6069   85.7690   16.9624 C.3     1  UNL1        0.1543
     21 C          62.5231   84.5305   16.1202 C.3     1  UNL1        0.0673
     22 C          63.0126   84.5533   14.7025 C.3     1  UNL1        0.1499
     23 O          63.5858   85.8144   14.1270 O.3     1  UNL1       -0.2896
     24 C          62.9289   83.3149   13.8602 C.ar    1  UNL1        0.0187
     25 C          63.0236   81.9629   14.5029 C.ar    1  UNL1        0.0008
     26 C          62.9399   80.7245   13.6606 C.ar    1  UNL1        0.0204
     27 C          62.7616   80.8381   12.1757 C.ar    1  UNL1        0.0984
     28 N          62.6669   82.1901   11.5329 N.ar    1  UNL1       -0.2484
     29 C          62.7506   83.4285   12.3752 C.ar    1  UNL1        0.0577
     30 C          62.6559   84.7805   11.7324 C.3     1  UNL1        0.0518
@<TRIPOS>BOND
     1     2     3    1
     2     3     4   ar
     3     4     5   ar
     4     5     1    1
     5     1    16    1
     6    17    16    1
     7    17    18    2
     8    17    19    1
     9    19    20    1
    10    20    21    1
    11    21    22    1
    12    22    24    1
    13    24    25   ar
    14    25    26   ar
    15    26    27   ar
    16    27    28   ar
    17    28    29   ar
    18    29    30    1
    19    22    23    1
    20     5     6   ar
    21     6     7   ar
    22     7     8   ar
    23     8     9    1
    24     7    10    1
    25    10    11    1
    26    11    12   ar
    27    12    13   ar
    28    13    14   ar
    29    14    15   ar
    30     8     3   ar
    31    15    11   ar
    32    23    17    1
    33    15     6    1
    34    29    24   ar
@<TRIPOS>MOLECULE
*****
 30 34 0 0 0
SMALL
GASTEIGER

@<TRIPOS>ATOM
      1 O          62.4843   88.5515   12.2152 O.3     1  UNL1       -0.4630
      2 C          62.2516   85.5906    7.9516 C.3     1  UNL1        0.0308
      3 C          62.5491   85.7410    9.4141 C.ar    1  UNL1       -0.0231
      4 C          62.3679   87.0711   10.0834 C.ar    1  UNL1        0.0324
      5 C          62.6654   87.2214   11.5460 C.ar    1  UNL1        0.1402
      6 C          63.1441   86.0418   12.3391 C.ar    1  UNL1        0.0479
      7 C          63.3252   84.7116   11.6697 C.ar    1  UNL1       -0.0171
      8 C          63.0278   84.5612   10.2073 C.ar    1  UNL1       -0.0292
      9 C          63.2089   83.2311    9.5380 C.3     1  UNL1        0.0304
     10 C          63.8074   83.7354   12.7015 C.3     1  UNL1        0.0606
     11 C          63.9242   84.4621   14.0085 C.ar    1  UNL1        0.0308
     12 S          64.2944   84.3079   15.4539 S.2     1  UNL1       -0.0685
     13 C          64.1133   85.6381   16.1232 C.ar    1  UNL1        0.1342
     14 N          63.6311   86.6143   15.0915 N.ar    1  UNL1       -0.2365
     15 C          63.5143   85.8875   13.7845 C.ar    1  UNL1        0.0868
     16 C          62.1754   89.7684   11.3943 C.3     1  UNL1        0.3201
     17 P          63.2213   90.8253   11.1971 P.3     1  UNL1        0.3872
     18 O          62.5906   90.8259    9.8361 O.2     1  UNL1       -0.2539
     19 O          63.4889   90.4577   12.6265 O.3     1  UNL1       -0.2916
     20 C          64.5832   91.1473   13.3861 C.3     1  UNL1        0.1543
     21 C          65.4101   92.2044   12.7162 C.3     1  UNL1        0.0673
     22 C          65.1425   92.5721   11.2868 C.3     1  UNL1        0.1499
     23 O          64.0481   91.8825   10.5272 O.3     1  UNL1       -0.2896
     24 C          65.9694   93.6292   10.6169 C.ar    1  UNL1        0.0187
     25 C          65.4695   95.0420   10.5501 C.ar    1  UNL1        0.0008
     26 C          66.2963   96.0991    9.8802 C.ar    1  UNL1        0.0204
     27 C          67.6229   95.7437    9.2770 C.ar    1  UNL1        0.0984
     28 N          68.1227   94.3309    9.3438 N.ar    1  UNL1       -0.2484
     29 C          67.2959   93.2738   10.0137 C.ar    1  UNL1        0.0577
     30 C          67.7957   91.8610   10.0805 C.3     1  UNL1        0.0518
@<TRIPOS>BOND
     1     2     3    1
     2     3     4   ar
     3     4     5   ar
     4     5     1    1
     5     1    16    1
     6    17    16    1
     7    17    18    2
     8    17    19    1
     9    19    20    1
    10    20    21    1
    11    21    22    1
    12    22    24    1
    13    24    25   ar
    14    25    26   ar
    15    26    27   ar
    16    27    28   ar
    17    28    29   ar
    18    29    30    1
    19    22    23    1
    20     5     6   ar
    21     6     7   ar
    22     7     8   ar
    23     8     9    1
    24     7    10    1
    25    10    11    1
    26    11    12   ar
    27    12    13   ar
    28    13    14   ar
    29    14    15   ar
    30     8     3   ar
    31    15    11   ar
    32    23    17    1
    33    15     6    1
    34    29    24   ar
@<TRIPOS>MOLECULE
*****
 30 34 0 0 0
SMALL
GASTEIGER

@<TRIPOS>ATOM
      1 O          61.8851   87.6727   11.9961 O.3     1  UNL1       -0.4630
      2 C          62.8171   84.9033    7.6993 C.3     1  UNL1        0.0308
      3 C          62.8984   85.0563    9.1892 C.ar    1  UNL1       -0.0231
      4 C          62.3511   86.2880    9.8477 C.ar    1  UNL1        0.0324
      5 C          62.4324   86.4410   11.3377 C.ar    1  UNL1        0.1402
      6 C          63.0608   85.3624   12.1692 C.ar    1  UNL1        0.0479
      7 C          63.6081   84.1307   11.5108 C.ar    1  UNL1       -0.0171
      8 C          63.5269   83.9777   10.0208 C.ar    1  UNL1       -0.0292
      9 C          64.0741   82.7460    9.3624 C.3     1  UNL1        0.0304
     10 C          64.1669   83.2418   12.5821 C.3     1  UNL1        0.0606
     11 C          63.9650   83.9241   13.9026 C.ar    1  UNL1        0.0308
     12 S          64.1856   83.7964   15.3808 S.2     1  UNL1       -0.0685
     13 C          63.6383   85.0281   16.0391 C.ar    1  UNL1        0.1342
     14 N          63.0795   85.9170   14.9679 N.ar    1  UNL1       -0.2365
     15 C          63.2814   85.2347   13.6474 C.ar    1  UNL1        0.0868
     16 C          62.2280   89.0284   11.4536 C.3     1  UNL1        0.3201
     17 P          63.3131   89.8408   12.0960 P.3     1  UNL1        0.3872
     18 O          63.1304   88.7788   13.1394 O.2     1  UNL1       -0.2539
     19 O          63.1189   90.6208   10.8295 O.3     1  UNL1       -0.2916
     20 C          63.9463   91.8442   10.5678 C.3     1  UNL1        0.1543
     21 C          64.9680   92.2878   11.5726 C.3     1  UNL1        0.0673
     22 C          65.1621   91.5078   12.8391 C.3     1  UNL1        0.1499
     23 O          64.3347   90.2843   13.1008 O.3     1  UNL1       -0.2896
     24 C          66.1837   91.9513   13.8439 C.ar    1  UNL1        0.0187
     25 C          65.7620   92.2881   15.2435 C.ar    1  UNL1        0.0008
     26 C          66.7836   92.7316   16.2484 C.ar    1  UNL1        0.0204
     27 C          68.2268   92.8383   15.8537 C.ar    1  UNL1        0.0984
     28 N          68.6484   92.5015   14.4541 N.ar    1  UNL1       -0.2484
     29 C          67.6269   92.0580   13.4493 C.ar    1  UNL1        0.0577
     30 C          68.0485   91.7213   12.0497 C.3     1  UNL1        0.0518
@<TRIPOS>BOND
     1     2     3    1
     2     3     4   ar
     3     4     5   ar
     4     5     1    1
     5     1    16    1
     6    17    16    1
     7    17    18    2
     8    17    19    1
     9    19    20    1
    10    20    21    1
    11    21    22    1
    12    22    24    1
    13    24    25   ar
    14    25    26   ar
    15    26    27   ar
    16    27    28   ar
    17    28    29   ar
    18    29    30    1
    19    22    23    1
    20     5     6   ar
    21     6     7   ar
    22     7     8   ar
    23     8     9    1
    24     7    10    1
    25    10    11    1
    26    11    12   ar
    27    12    13   ar
    28    13    14   ar
    29    14    15   ar
    30     8     3   ar
    31    15    11   ar
    32    23    17    1
    33    15     6    1
    34    29    24   ar
@<TRIPOS>MOLECULE
*****
 30 34 0 0 0
SMALL
GASTEIGER

@<TRIPOS>ATOM
      1 O          61.3740   88.9034   12.0349 O.3     1  UNL1       -0.4630
      2 C          59.3649   88.1536    7.3019 C.3     1  UNL1        0.0308
      3 C          60.1651   87.6530    8.4677 C.ar    1  UNL1       -0.0231
      4 C          60.3695   88.5286    9.6685 C.ar    1  UNL1        0.0324
      5 C          61.1697   88.0279   10.8342 C.ar    1  UNL1        0.1402
      6 C          61.7656   86.6519   10.7993 C.ar    1  UNL1        0.0479
      7 C          61.5613   85.7763    9.5985 C.ar    1  UNL1       -0.0171
      8 C          60.7611   86.2769    8.4328 C.ar    1  UNL1       -0.0292
      9 C          60.5568   85.4014    7.2321 C.3     1  UNL1        0.0304
     10 C          62.2648   84.4753    9.8485 C.3     1  UNL1        0.0606
     11 C          62.9039   84.5467   11.2037 C.ar    1  UNL1        0.0308
     12 S          63.7336   83.7868   12.1956 S.2     1  UNL1       -0.0685
     13 C          63.9379   84.6623   13.3963 C.ar    1  UNL1        0.1342
     14 N          63.2345   85.9634   13.1464 N.ar    1  UNL1       -0.2365
     15 C          62.5954   85.8919   11.7913 C.ar    1  UNL1        0.0868
     16 C          61.9656   90.2723   11.8731 C.3     1  UNL1        0.3201
     17 P          63.1766   90.6647   12.6664 P.3     1  UNL1        0.3872
     18 O          63.2292   91.6996   11.5819 O.2     1  UNL1       -0.2539
     19 O          62.7035   89.4935   13.4754 O.3     1  UNL1       -0.2916
     20 C          63.4596   89.0741   14.7011 C.3     1  UNL1        0.1543
     21 C          64.6890   89.8258   15.1178 C.3     1  UNL1        0.0673
     22 C          65.1621   90.9970   14.3088 C.3     1  UNL1        0.1499
     23 O          64.4059   91.4165   13.0831 O.3     1  UNL1       -0.2896
     24 C          66.3914   91.7488   14.7255 C.ar    1  UNL1        0.0187
     25 C          67.6357   91.6731   13.8911 C.ar    1  UNL1        0.0008
     26 C          68.8650   92.4249   14.3077 C.ar    1  UNL1        0.0204
     27 C          68.8502   93.2524   15.5587 C.ar    1  UNL1        0.0984
     28 N          67.6059   93.3281   16.3931 N.ar    1  UNL1       -0.2484
     29 C          66.3766   92.5763   15.9764 C.ar    1  UNL1        0.0577
     30 C          65.1323   92.6521   16.8108 C.3     1  UNL1        0.0518
@<TRIPOS>BOND
     1     2     3    1
     2     3     4   ar
     3     4     5   ar
     4     5     1    1
     5     1    16    1
     6    17    16    1
     7    17    18    2
     8    17    19    1
     9    19    20    1
    10    20    21    1
    11    21    22    1
    12    22    24    1
    13    24    25   ar
    14    25    26   ar
    15    26    27   ar
    16    27    28   ar
    17    28    29   ar
    18    29    30    1
    19    22    23    1
    20     5     6   ar
    21     6     7   ar
    22     7     8   ar
    23     8     9    1
    24     7    10    1
    25    10    11    1
    26    11    12   ar
    27    12    13   ar
    28    13    14   ar
    29    14    15   ar
    30     8     3   ar
    31    15    11   ar
    32    23    17    1
    33    15     6    1
    34    29    24   ar
@<TRIPOS>MOLECULE
*****
 30 34 0 0 0
SMALL
GASTEIGER

@<TRIPOS>ATOM
      1 O          61.5571   88.4810   12.2589 O.3     1  UNL1       -0.4630
      2 C          64.2912   84.0817   12.6719 C.3     1  UNL1        0.0308
      3 C          63.3899   84.9814   11.8794 C.ar    1  UNL1       -0.0231
      4 C          62.9241   86.2814   12.4654 C.ar    1  UNL1        0.0324
      5 C          62.0228   87.1811   11.6729 C.ar    1  UNL1        0.1402
      6 C          61.5871   86.7810   10.2945 C.ar    1  UNL1        0.0479
      7 C          62.0529   85.4811    9.7085 C.ar    1  UNL1       -0.0171
      8 C          62.9542   84.5813   10.5010 C.ar    1  UNL1       -0.0292
      9 C          63.4199   83.2814    9.9149 C.3     1  UNL1        0.0304
     10 C          61.4626   85.3538    8.3354 C.3     1  UNL1        0.0606
     11 C          60.6321   86.5750    8.0728 C.ar    1  UNL1        0.0308
     12 S          59.7541   87.2510    7.0618 S.2     1  UNL1       -0.0685
     13 C          59.2884   88.5509    7.6479 C.ar    1  UNL1        0.1342
     14 N          59.8786   88.6782    9.0210 N.ar    1  UNL1       -0.2365
     15 C          60.7091   87.4570    9.2836 C.ar    1  UNL1        0.0868
     16 C          62.0547   89.7789   11.6952 C.3     1  UNL1        0.3201
     17 P          63.2689   90.4353   12.2824 P.3     1  UNL1        0.3872
     18 O          62.8409   89.5908   13.4459 O.2     1  UNL1       -0.2539
     19 O          63.2751   91.0519   10.9149 O.3     1  UNL1       -0.2916
     20 C          64.3470   92.0315   10.5389 C.3     1  UNL1        0.1543
     21 C          65.4126   92.3946   11.5302 C.3     1  UNL1        0.0673
     22 C          65.4063   91.7780   12.8976 C.3     1  UNL1        0.1499
     23 O          64.3344   90.7983   13.2737 O.3     1  UNL1       -0.2896
     24 C          66.4719   92.1410   13.8889 C.ar    1  UNL1        0.0187
     25 C          66.0924   92.5579   15.2790 C.ar    1  UNL1        0.0008
     26 C          67.1579   92.9209   16.2704 C.ar    1  UNL1        0.0204
     27 C          68.6029   92.8672   15.8718 C.ar    1  UNL1        0.0984
     28 N          68.9825   92.4504   14.4816 N.ar    1  UNL1       -0.2484
     29 C          67.9169   92.0873   13.4903 C.ar    1  UNL1        0.0577
     30 C          68.2964   91.6705   12.1002 C.3     1  UNL1        0.0518
@<TRIPOS>BOND
     1     2     3    1
     2     3     4   ar
     3     4     5   ar
     4     5     1    1
     5     1    16    1
     6    17    16    1
     7    17    18    2
     8    17    19    1
     9    19    20    1
    10    20    21    1
    11    21    22    1
    12    22    24    1
    13    24    25   ar
    14    25    26   ar
    15    26    27   ar
    16    27    28   ar
    17    28    29   ar
    18    29    30    1
    19    22    23    1
    20     5     6   ar
    21     6     7   ar
    22     7     8   ar
    23     8     9    1
    24     7    10    1
    25    10    11    1
    26    11    12   ar
    27    12    13   ar
    28    13    14   ar
    29    14    15   ar
    30     8     3   ar
    31    15    11   ar
    32    23    17    1
    33    15     6    1
    34    29    24   ar
