@<TRIPOS>MOLECULE
*****
 40 45 0 0 0
SMALL
GASTEIGER

@<TRIPOS>ATOM
      1 C          64.0124   89.6054   15.7334 C.ar    1  UNL1        0.1667
      2 N          63.1809   88.8680   16.7407 N.ar    1  UNL1       -0.2239
      3 C          63.1797   87.4153   16.3666 C.ar    1  UNL1        0.0893
      4 C          62.5294   86.2179   16.9937 C.ar    1  UNL1        0.0202
      5 C          62.7101   84.8602   16.3822 C.ar    1  UNL1        0.0081
      6 C          63.5410   84.6999   15.1437 C.ar    1  UNL1        0.0329
      7 C          64.1912   85.8973   14.5166 C.ar    1  UNL1        0.0146
      8 C          64.0106   87.2550   15.1281 C.ar    1  UNL1        0.0502
      9 S          64.5252   88.6086   14.7368 S.2     1  UNL1       -0.0513
     10 O          66.0808   90.7390   13.8796 O.2     1  UNL1       -0.2524
     11 C          65.3178   91.6475   14.7975 C.2     1  UNL1        0.3059
     12 N          65.5889   93.1228   14.7885 N.am    1  UNL1       -0.2872
     13 N          64.2836   91.0807   15.7244 N.am    1  UNL1       -0.2485
     14 H          65.0881   93.7190   15.3909 H       1  UNL1        0.1510
     15 H          63.7828   91.6769   16.3268 H       1  UNL1        0.1583
     16 C          66.6232   93.6896   13.8615 C.3     1  UNL1        0.1082
     17 C          66.2059   94.3056   12.5591 C.3     1  UNL1        0.0938
     18 N          66.8884   93.9020   11.2858 N.3     1  UNL1       -0.2670
     19 C          67.3632   92.4907   11.1041 C.3     1  UNL1        0.1047
     20 C          68.0456   92.0871    9.8308 C.3     1  UNL1        0.1595
     21 O          68.2533   93.0947    8.7391 O.3     1  UNL1       -0.3508
     22 C          67.7785   94.5059    8.9208 C.3     1  UNL1        0.1595
     23 C          67.0960   94.9096   10.1941 C.3     1  UNL1        0.1047
     24 S          63.7216   83.3421   14.5323 S.3     1  UNL1       -0.0470
     25 C          63.8686   83.2023   13.0461 C.ar    1  UNL1        0.2171
     26 N          64.5394   82.0682   12.3292 N.ar    1  UNL1       -0.1200
     27 N          64.4561   82.3371   10.8559 N.ar    1  UNL1       -0.1264
     28 C          63.7337   83.6374   10.6622 C.ar    1  UNL1        0.1872
     29 C          63.3597   84.4036    9.4281 C.ar    1  UNL1        0.0423
     30 C          62.6226   85.7045    9.5475 C.ar    1  UNL1        0.0241
     31 C          62.2595   86.2393   10.9012 C.ar    1  UNL1        0.1015
     32 N          62.6335   85.4731   12.1352 N.ar    1  UNL1       -0.1620
     33 N          63.3707   84.1721   12.0158 N.ar    1  UNL1       -0.1859
     34 C          61.5224   87.5401   11.0207 C.ar    1  UNL1        0.0195
     35 C          60.0827   87.6270   10.6088 C.ar    1  UNL1        0.0039
     36 C          59.3455   88.9279   10.7283 C.ar    1  UNL1        0.0297
     37 C          60.0482   90.1420   11.2597 C.ar    1  UNL1        0.1401
     38 F          59.3111   91.4429   11.3792 F       1  UNL1       -0.2042
     39 C          61.4880   90.0551   11.6716 C.ar    1  UNL1        0.0297
     40 C          62.2250   88.7543   11.5521 C.ar    1  UNL1        0.0039
@<TRIPOS>BOND
     1    10    11    2
     2    11    12   am
     3    12    16    1
     4    16    17    1
     5    17    18    1
     6    18    19    1
     7    19    20    1
     8    20    21    1
     9    21    22    1
    10    22    23    1
    11    11    13   am
    12    13     1    1
    13     1     2   ar
    14     2     3   ar
    15     3     4   ar
    16     4     5   ar
    17     5     6   ar
    18     6    24    1
    19    24    25    1
    20    25    26   ar
    21    26    27   ar
    22    27    28   ar
    23    28    29   ar
    24    29    30   ar
    25    30    31   ar
    26    31    34    1
    27    34    35   ar
    28    35    36   ar
    29    36    37   ar
    30    37    38    1
    31    37    39   ar
    32    39    40   ar
    33    31    32   ar
    34    32    33   ar
    35     6     7   ar
    36     7     8   ar
    37     8     9   ar
    38    23    18    1
    39     9     1   ar
    40     8     3   ar
    41    33    25   ar
    42    33    28   ar
    43    40    34   ar
    44    12    14    1
    45    13    15    1
@<TRIPOS>MOLECULE
*****
 40 45 0 0 0
SMALL
GASTEIGER

@<TRIPOS>ATOM
      1 C          64.3962   84.9759   15.4332 C.ar    1  UNL1        0.1667
      2 N          63.5444   85.4111   16.5886 N.ar    1  UNL1       -0.2239
      3 C          63.4657   86.9089   16.5682 C.ar    1  UNL1        0.0893
      4 C          62.7664   87.8895   17.4622 C.ar    1  UNL1        0.0202
      5 C          62.8703   89.3606   17.1883 C.ar    1  UNL1        0.0081
      6 C          63.6735   89.8511   16.0202 C.ar    1  UNL1        0.0329
      7 C          64.3728   88.8705   15.1261 C.ar    1  UNL1        0.0146
      8 C          64.2689   87.3994   15.4001 C.ar    1  UNL1        0.0502
      9 S          64.8439   86.2047   14.6987 S.2     1  UNL1       -0.0513
     10 O          62.2882   83.1570   14.3161 O.2     1  UNL1       -0.2524
     11 C          63.6859   82.6509   14.5166 C.2     1  UNL1        0.3059
     12 N          64.0297   81.2354   14.1586 N.am    1  UNL1       -0.2872
     13 N          64.7399   83.5604   15.0752 N.am    1  UNL1       -0.2485
     14 H          64.9470   80.9033   14.2903 H       1  UNL1        0.1510
     15 H          65.6573   83.2282   15.2068 H       1  UNL1        0.1583
     16 C          62.9756   80.3260   13.6000 C.3     1  UNL1        0.1082
     17 C          62.4851   80.5199   12.1958 C.3     1  UNL1        0.0938
     18 N          62.8680   81.7522   11.4311 N.3     1  UNL1       -0.2670
     19 C          64.0124   81.7084   10.4623 C.3     1  UNL1        0.1047
     20 C          64.3953   82.9408    9.6976 C.3     1  UNL1        0.1595
     21 O          63.6337   84.2169    9.9017 O.3     1  UNL1       -0.3508
     22 C          62.4894   84.2607   10.8704 C.3     1  UNL1        0.1595
     23 C          62.1065   83.0283   11.6351 C.3     1  UNL1        0.1047
     24 S          63.7774   91.3222   15.7462 S.3     1  UNL1       -0.0470
     25 C          64.4763   91.8076   14.5110 C.ar    1  UNL1        0.2171
     26 N          65.6455   92.7464   14.4706 N.ar    1  UNL1       -0.1200
     27 N          66.0205   92.9584   13.0338 N.ar    1  UNL1       -0.1264
     28 C          65.0830   92.1504   12.1861 C.ar    1  UNL1        0.1872
     29 C          64.9751   91.9705   10.7009 C.ar    1  UNL1        0.0423
     30 C          63.9130   91.0794   10.1285 C.ar    1  UNL1        0.0241
     31 C          62.9586   90.3681   11.0414 C.ar    1  UNL1        0.1015
     32 N          63.0665   90.5481   12.5266 N.ar    1  UNL1       -0.1620
     33 N          64.1287   91.4392   13.0991 N.ar    1  UNL1       -0.1859
     34 C          61.8964   89.4770   10.4691 C.ar    1  UNL1        0.0195
     35 C          61.6690   88.1128   11.0496 C.ar    1  UNL1        0.0039
     36 C          60.6068   87.2216   10.4773 C.ar    1  UNL1        0.0297
     37 C          59.7720   87.6947    9.3244 C.ar    1  UNL1        0.1401
     38 F          58.7098   86.8036    8.7520 F       1  UNL1       -0.2042
     39 C          59.9994   89.0591    8.7438 C.ar    1  UNL1        0.0297
     40 C          61.0616   89.9501    9.3161 C.ar    1  UNL1        0.0039
@<TRIPOS>BOND
     1    10    11    2
     2    11    12   am
     3    12    16    1
     4    16    17    1
     5    17    18    1
     6    18    19    1
     7    19    20    1
     8    20    21    1
     9    21    22    1
    10    22    23    1
    11    11    13   am
    12    13     1    1
    13     1     2   ar
    14     2     3   ar
    15     3     4   ar
    16     4     5   ar
    17     5     6   ar
    18     6    24    1
    19    24    25    1
    20    25    26   ar
    21    26    27   ar
    22    27    28   ar
    23    28    29   ar
    24    29    30   ar
    25    30    31   ar
    26    31    34    1
    27    34    35   ar
    28    35    36   ar
    29    36    37   ar
    30    37    38    1
    31    37    39   ar
    32    39    40   ar
    33    31    32   ar
    34    32    33   ar
    35     6     7   ar
    36     7     8   ar
    37     8     9   ar
    38    23    18    1
    39     9     1   ar
    40     8     3   ar
    41    33    25   ar
    42    33    28   ar
    43    40    34   ar
    44    12    14    1
    45    13    15    1
@<TRIPOS>MOLECULE
*****
 40 45 0 0 0
SMALL
GASTEIGER

@<TRIPOS>ATOM
      1 C          63.7036   89.7739   15.7226 C.ar    1  UNL1        0.1667
      2 N          63.2775   89.0595   16.9708 N.ar    1  UNL1       -0.2239
      3 C          63.0135   87.6258   16.6173 C.ar    1  UNL1        0.0893
      4 C          62.5676   86.4545   17.4414 C.ar    1  UNL1        0.0202
      5 C          62.3848   85.1116   16.7988 C.ar    1  UNL1        0.0081
      6 C          62.6477   84.9399   15.3320 C.ar    1  UNL1        0.0329
      7 C          63.0936   86.1112   14.5079 C.ar    1  UNL1        0.0146
      8 C          63.2764   87.4542   15.1505 C.ar    1  UNL1        0.0502
      9 S          63.7029   88.7817   14.5976 S.2     1  UNL1       -0.0513
     10 O          66.4904   90.5711   14.9494 O.2     1  UNL1       -0.2524
     11 C          65.4600   91.6242   15.2312 C.2     1  UNL1        0.3059
     12 N          65.8230   93.0758   15.1264 N.am    1  UNL1       -0.2872
     13 N          64.0666   91.2255   15.6178 N.am    1  UNL1       -0.2485
     14 H          65.1467   93.7669   15.3114 H       1  UNL1        0.1510
     15 H          63.3903   91.9166   15.8028 H       1  UNL1        0.1583
     16 C          67.2164   93.4744   14.7398 C.3     1  UNL1        0.1082
     17 C          67.7980   93.0029   13.4400 C.3     1  UNL1        0.0938
     18 N          67.1794   93.4311   12.1424 N.3     1  UNL1       -0.2670
     19 C          66.3720   94.6936   12.0769 C.3     1  UNL1        0.1047
     20 C          65.7534   95.1218   10.7793 C.3     1  UNL1        0.1595
     21 O          65.9421   94.2875    9.5471 O.3     1  UNL1       -0.3508
     22 C          66.7494   93.0250    9.6125 C.3     1  UNL1        0.1595
     23 C          67.3681   92.5968   10.9102 C.3     1  UNL1        0.1047
     24 S          62.4648   83.5969   14.6894 S.3     1  UNL1       -0.0470
     25 C          63.3175   83.2026   13.5200 C.ar    1  UNL1        0.2171
     26 N          64.4029   82.1674   13.5295 N.ar    1  UNL1       -0.1200
     27 N          64.9907   82.0993   12.1511 N.ar    1  UNL1       -0.1264
     28 C          64.2684   83.0926   11.2897 C.ar    1  UNL1        0.1872
     29 C          64.4188   83.4642    9.8443 C.ar    1  UNL1        0.0423
     30 C          63.5352   84.5176    9.2448 C.ar    1  UNL1        0.0241
     31 C          62.5011   85.1995   10.0908 C.ar    1  UNL1        0.1015
     32 N          62.3507   84.8279   11.5362 N.ar    1  UNL1       -0.1620
     33 N          63.2344   83.7744   12.1358 N.ar    1  UNL1       -0.1859
     34 C          61.6174   86.2529    9.4914 C.ar    1  UNL1        0.0195
     35 C          61.6802   87.6627    9.9998 C.ar    1  UNL1        0.0039
     36 C          60.7965   88.7163    9.4004 C.ar    1  UNL1        0.0297
     37 C          59.8501   88.3599    8.2925 C.ar    1  UNL1        0.1401
     38 F          58.9664   89.4133    7.6931 F       1  UNL1       -0.2042
     39 C          59.7873   86.9500    7.7841 C.ar    1  UNL1        0.0297
     40 C          60.6710   85.8966    8.3835 C.ar    1  UNL1        0.0039
@<TRIPOS>BOND
     1    10    11    2
     2    11    12   am
     3    12    16    1
     4    16    17    1
     5    17    18    1
     6    18    19    1
     7    19    20    1
     8    20    21    1
     9    21    22    1
    10    22    23    1
    11    11    13   am
    12    13     1    1
    13     1     2   ar
    14     2     3   ar
    15     3     4   ar
    16     4     5   ar
    17     5     6   ar
    18     6    24    1
    19    24    25    1
    20    25    26   ar
    21    26    27   ar
    22    27    28   ar
    23    28    29   ar
    24    29    30   ar
    25    30    31   ar
    26    31    34    1
    27    34    35   ar
    28    35    36   ar
    29    36    37   ar
    30    37    38    1
    31    37    39   ar
    32    39    40   ar
    33    31    32   ar
    34    32    33   ar
    35     6     7   ar
    36     7     8   ar
    37     8     9   ar
    38    23    18    1
    39     9     1   ar
    40     8     3   ar
    41    33    25   ar
    42    33    28   ar
    43    40    34   ar
    44    12    14    1
    45    13    15    1
@<TRIPOS>MOLECULE
*****
 40 45 0 0 0
SMALL
GASTEIGER

@<TRIPOS>ATOM
      1 C          60.9387   93.5927    1.2907 C.ar    1  UNL1        0.1667
      2 N          62.0040   92.7277    1.8966 N.ar    1  UNL1       -0.2239
      3 C          61.4226   92.0534    3.1038 C.ar    1  UNL1        0.0893
      4 C          62.0064   91.0892    4.0934 C.ar    1  UNL1        0.0202
      5 C          61.1655   90.5732    5.2234 C.ar    1  UNL1        0.0081
      6 C          59.7410   91.0215    5.3636 C.ar    1  UNL1        0.0329
      7 C          59.1572   91.9857    4.3740 C.ar    1  UNL1        0.0146
      8 C          59.9981   92.5017    3.2441 C.ar    1  UNL1        0.0502
      9 S          59.6990   93.4530    2.1235 S.2     1  UNL1       -0.0513
     10 O          59.9537   92.5974   -1.3624 O.2     1  UNL1       -0.2524
     11 C          60.5947   93.9497   -1.2596 C.2     1  UNL1        0.3059
     12 N          60.7431   94.8044   -2.4833 N.am    1  UNL1       -0.2872
     13 N          61.0872   94.4473    0.0670 N.am    1  UNL1       -0.2485
     14 H          61.1638   95.6919   -2.4159 H       1  UNL1        0.1510
     15 H          61.5079   95.3349    0.1345 H       1  UNL1        0.1583
     16 C          60.2505   94.3067   -3.8099 C.3     1  UNL1        0.1082
     17 C          58.8194   94.5186   -4.2061 C.3     1  UNL1        0.0938
     18 N          57.7213   93.8406   -3.4416 N.3     1  UNL1       -0.2670
     19 C          57.3716   92.4124   -3.7388 C.3     1  UNL1        0.1047
     20 C          56.2735   91.7344   -2.9743 C.3     1  UNL1        0.1595
     21 O          55.5251   92.4845   -1.9125 O.3     1  UNL1       -0.3508
     22 C          55.8748   93.9125   -1.6153 C.3     1  UNL1        0.1595
     23 C          56.9729   94.5906   -2.3798 C.3     1  UNL1        0.1047
     24 S          58.9002   90.5055    6.4936 S.3     1  UNL1       -0.0470
     25 C          59.2015   89.1683    7.1028 C.ar    1  UNL1        0.2171
     26 N          58.5719   87.8622    6.7184 N.ar    1  UNL1       -0.1200
     27 N          59.1666   86.7892    7.5814 N.ar    1  UNL1       -0.1264
     28 C          60.1638   87.4321    8.4992 C.ar    1  UNL1        0.1872
     29 C          61.0550   86.8686    9.5661 C.ar    1  UNL1        0.0423
     30 C          61.9677   87.7753   10.3372 C.ar    1  UNL1        0.0241
     31 C          61.9893   89.2457   10.0414 C.ar    1  UNL1        0.1015
     32 N          61.0981   89.8093    8.9745 N.ar    1  UNL1       -0.1620
     33 N          60.1853   88.9025    8.2034 N.ar    1  UNL1       -0.1859
     34 C          62.9020   90.1525   10.8124 C.ar    1  UNL1        0.0195
     35 C          63.1734   89.8862   12.2634 C.ar    1  UNL1        0.0039
     36 C          64.0861   90.7931   13.0346 C.ar    1  UNL1        0.0297
     37 C          64.7275   91.9662   12.3546 C.ar    1  UNL1        0.1401
     38 F          65.6403   92.8731   13.1257 F       1  UNL1       -0.2042
     39 C          64.4561   92.2325   10.9035 C.ar    1  UNL1        0.0297
     40 C          63.5435   91.3257   10.1325 C.ar    1  UNL1        0.0039
@<TRIPOS>BOND
     1    10    11    2
     2    11    12   am
     3    12    16    1
     4    16    17    1
     5    17    18    1
     6    18    19    1
     7    19    20    1
     8    20    21    1
     9    21    22    1
    10    22    23    1
    11    11    13   am
    12    13     1    1
    13     1     2   ar
    14     2     3   ar
    15     3     4   ar
    16     4     5   ar
    17     5     6   ar
    18     6    24    1
    19    24    25    1
    20    25    26   ar
    21    26    27   ar
    22    27    28   ar
    23    28    29   ar
    24    29    30   ar
    25    30    31   ar
    26    31    34    1
    27    34    35   ar
    28    35    36   ar
    29    36    37   ar
    30    37    38    1
    31    37    39   ar
    32    39    40   ar
    33    31    32   ar
    34    32    33   ar
    35     6     7   ar
    36     7     8   ar
    37     8     9   ar
    38    23    18    1
    39     9     1   ar
    40     8     3   ar
    41    33    25   ar
    42    33    28   ar
    43    40    34   ar
    44    12    14    1
    45    13    15    1
