@<TRIPOS>MOLECULE
*****
 17 18 0 0 0
SMALL
GASTEIGER

@<TRIPOS>ATOM
      1 C          63.6840   83.7147   10.7769 C.ar    1  UNL1        0.1386
      2 C          63.7572   84.0541    9.3176 C.ar    1  UNL1        0.0369
      3 C          62.8766   85.1289    8.7525 C.ar    1  UNL1        0.0044
      4 C          61.9229   85.8643    9.6466 C.ar    1  UNL1        0.0159
      5 C          61.8497   85.5249   11.1058 C.ar    1  UNL1        0.0044
      6 C          62.7303   84.4501   11.6710 C.ar    1  UNL1        0.0369
      7 C          61.0423   86.9391    9.0814 C.2     1  UNL1        0.0858
      8 N          59.8992   86.7339    8.1322 N.2     1  UNL1       -0.1523
      9 N          59.3006   88.0758    7.8304 N.2     1  UNL1       -0.1511
     10 C          60.0738   89.1103    8.5932 C.2     1  UNL1        0.1013
     11 C          61.1502   88.4078    9.3663 C.3     1  UNL1        0.0852
     12 C          62.1577   89.0596   10.2664 C.3     1  UNL1        0.0128
     13 O          64.5646   82.6399   11.3420 O.3     1  UNL1       -0.4755
     14 C          64.0853   81.8055   12.4926 C.3     1  UNL1        0.2054
     15 C          62.9524   80.8416   12.2994 C.3     1  UNL1        0.0473
     16 C          61.1101   81.0687   14.1172 C.3     1  UNL1        0.0001
     17 C          62.2271   80.2883   13.4902 C.3     1  UNL1        0.0038
@<TRIPOS>BOND
     1    16    17    1
     2    17    15    1
     3    15    14    1
     4    14    13    1
     5    13     1    1
     6     1     2   ar
     7     2     3   ar
     8     3     4   ar
     9     4     7    1
    10     7     8    2
    11     8     9    1
    12     9    10    2
    13    10    11    1
    14    11    12    1
    15     4     5   ar
    16     5     6   ar
    17     6     1   ar
    18    11     7    1
@<TRIPOS>MOLECULE
*****
 17 18 0 0 0
SMALL
GASTEIGER

@<TRIPOS>ATOM
      1 C          63.5394   83.6204   10.8037 C.ar    1  UNL1        0.1386
      2 C          62.6920   84.3960   11.7682 C.ar    1  UNL1        0.0369
      3 C          61.9666   85.6258   11.3084 C.ar    1  UNL1        0.0044
      4 C          62.0886   86.0799    9.8840 C.ar    1  UNL1        0.0159
      5 C          62.9359   85.3043    8.9195 C.ar    1  UNL1        0.0044
      6 C          63.6613   84.0745    9.3794 C.ar    1  UNL1        0.0369
      7 C          61.3632   87.3097    9.4242 C.2     1  UNL1        0.0858
      8 N          61.6195   88.7114    9.8926 N.2     1  UNL1       -0.1523
      9 N          60.6688   89.6217    9.1731 N.2     1  UNL1       -0.1511
     10 C          59.8250   88.7826    8.2600 C.2     1  UNL1        0.1013
     11 C          60.2541   87.3537    8.4152 C.3     1  UNL1        0.0852
     12 C          59.6758   86.1756    7.6889 C.3     1  UNL1        0.0128
     13 O          64.2648   82.3906   11.2636 O.3     1  UNL1       -0.4755
     14 C          64.1801   81.9624   12.6986 C.3     1  UNL1        0.2054
     15 C          63.0929   81.0278   13.1396 C.3     1  UNL1        0.0473
     16 C          60.6971   80.7629   14.1092 C.3     1  UNL1        0.0001
     17 C          61.9839   81.5282   14.0171 C.3     1  UNL1        0.0038
@<TRIPOS>BOND
     1    16    17    1
     2    17    15    1
     3    15    14    1
     4    14    13    1
     5    13     1    1
     6     1     2   ar
     7     2     3   ar
     8     3     4   ar
     9     4     7    1
    10     7     8    2
    11     8     9    1
    12     9    10    2
    13    10    11    1
    14    11    12    1
    15     4     5   ar
    16     5     6   ar
    17     6     1   ar
    18    11     7    1
@<TRIPOS>MOLECULE
*****
 17 18 0 0 0
SMALL
GASTEIGER

@<TRIPOS>ATOM
      1 C          66.8264   92.6080   11.4196 C.ar    1  UNL1        0.1386
      2 C          67.4865   92.2993   12.7307 C.ar    1  UNL1        0.0369
      3 C          66.6781   91.7417   13.8645 C.ar    1  UNL1        0.0044
      4 C          65.2096   91.4926   13.6873 C.ar    1  UNL1        0.0159
      5 C          64.5495   91.8013   12.3762 C.ar    1  UNL1        0.0044
      6 C          65.3579   92.3589   11.2424 C.ar    1  UNL1        0.0369
      7 C          64.4012   90.9349   14.8211 C.2     1  UNL1        0.0858
      8 N          63.9074   91.7011   16.0123 N.2     1  UNL1       -0.1523
      9 N          63.1457   90.7529   16.8902 N.2     1  UNL1       -0.1511
     10 C          63.1687   89.4006   16.2415 C.2     1  UNL1        0.1013
     11 C          63.9447   89.5132   14.9627 C.3     1  UNL1        0.0852
     12 C          64.2163   88.3994   13.9953 C.3     1  UNL1        0.0128
     13 O          67.6347   93.1657   10.2858 O.3     1  UNL1       -0.4755
     14 C          67.0097   94.1309    9.3228 C.3     1  UNL1        0.2054
     15 C          67.5125   95.5419    9.2425 C.3     1  UNL1        0.0473
     16 C          66.0855   96.2593   11.2917 C.3     1  UNL1        0.0001
     17 C          66.8593   96.6183   10.0579 C.3     1  UNL1        0.0038
@<TRIPOS>BOND
     1    16    17    1
     2    17    15    1
     3    15    14    1
     4    14    13    1
     5    13     1    1
     6     1     2   ar
     7     2     3   ar
     8     3     4   ar
     9     4     7    1
    10     7     8    2
    11     8     9    1
    12     9    10    2
    13    10    11    1
    14    11    12    1
    15     4     5   ar
    16     5     6   ar
    17     6     1   ar
    18    11     7    1
@<TRIPOS>MOLECULE
*****
 17 18 0 0 0
SMALL
GASTEIGER

@<TRIPOS>ATOM
      1 C          63.8651   90.7221   13.0588 C.ar    1  UNL1        0.1386
      2 C          65.0153   91.4781   13.6550 C.ar    1  UNL1        0.0369
      3 C          65.7893   92.4508   12.8155 C.ar    1  UNL1        0.0044
      4 C          65.4131   92.6675   11.3797 C.ar    1  UNL1        0.0159
      5 C          64.2629   91.9115   10.7835 C.ar    1  UNL1        0.0044
      6 C          63.4889   90.9389   11.6231 C.ar    1  UNL1        0.0369
      7 C          66.1870   93.6402   10.5402 C.2     1  UNL1        0.0858
      8 N          65.8393   95.0818   10.3145 N.2     1  UNL1       -0.1523
      9 N          66.8820   95.6746    9.4137 N.2     1  UNL1       -0.1511
     10 C          67.8742   94.5994    9.0827 C.2     1  UNL1        0.1013
     11 C          67.4446   93.3421    9.7789 C.3     1  UNL1        0.0852
     12 C          68.1491   92.0189    9.7235 C.3     1  UNL1        0.0128
     13 O          63.0911   89.7494   13.8984 O.3     1  UNL1       -0.4755
     14 C          63.7916   88.9470   14.9544 C.3     1  UNL1        0.2054
     15 C          64.5042   87.6800   14.5843 C.3     1  UNL1        0.0473
     16 C          64.6369   85.0904   14.7476 C.3     1  UNL1        0.0001
     17 C          64.2017   86.4074   15.3186 C.3     1  UNL1        0.0038
@<TRIPOS>BOND
     1    16    17    1
     2    17    15    1
     3    15    14    1
     4    14    13    1
     5    13     1    1
     6     1     2   ar
     7     2     3   ar
     8     3     4   ar
     9     4     7    1
    10     7     8    2
    11     8     9    1
    12     9    10    2
    13    10    11    1
    14    11    12    1
    15     4     5   ar
    16     5     6   ar
    17     6     1   ar
    18    11     7    1
@<TRIPOS>MOLECULE
*****
 17 18 0 0 0
SMALL
GASTEIGER

@<TRIPOS>ATOM
      1 C          64.2383   91.1088   14.0133 C.ar    1  UNL1        0.1386
      2 C          63.7840   91.2253   12.5885 C.ar    1  UNL1        0.0369
      3 C          64.6805   91.8562   11.5647 C.ar    1  UNL1        0.0044
      4 C          66.0313   92.3706   11.9656 C.ar    1  UNL1        0.0159
      5 C          66.4855   92.2542   13.3904 C.ar    1  UNL1        0.0044
      6 C          65.5890   91.6232   14.4142 C.ar    1  UNL1        0.0369
      7 C          66.9277   93.0015   10.9418 C.2     1  UNL1        0.0858
      8 N          68.1884   92.4070   10.3875 N.2     1  UNL1       -0.1523
      9 N          68.7608   93.3757    9.3956 N.2     1  UNL1       -0.1511
     10 C          67.8539   94.5691    9.3368 C.2     1  UNL1        0.1013
     11 C          66.7210   94.3378   10.2924 C.3     1  UNL1        0.0852
     12 C          65.5815   95.2778   10.5529 C.3     1  UNL1        0.0128
     13 O          63.3418   90.4779   15.0371 O.3     1  UNL1       -0.4755
     14 C          63.6078   89.0783   15.5064 C.3     1  UNL1        0.2054
     15 C          64.3248   88.1109   14.6120 C.3     1  UNL1        0.0473
     16 C          64.0077   85.5822   14.1065 C.3     1  UNL1        0.0001
     17 C          64.4703   86.6757   15.0232 C.3     1  UNL1        0.0038
@<TRIPOS>BOND
     1    16    17    1
     2    17    15    1
     3    15    14    1
     4    14    13    1
     5    13     1    1
     6     1     2   ar
     7     2     3   ar
     8     3     4   ar
     9     4     7    1
    10     7     8    2
    11     8     9    1
    12     9    10    2
    13    10    11    1
    14    11    12    1
    15     4     5   ar
    16     5     6   ar
    17     6     1   ar
    18    11     7    1
@<TRIPOS>MOLECULE
*****
 17 18 0 0 0
SMALL
GASTEIGER

@<TRIPOS>ATOM
      1 C          63.1116   89.8934   12.1960 C.ar    1  UNL1        0.1386
      2 C          63.6857   89.3232   13.4590 C.ar    1  UNL1        0.0369
      3 C          64.8193   90.0216   14.1498 C.ar    1  UNL1        0.0044
      4 C          65.3790   91.2901   13.5775 C.ar    1  UNL1        0.0159
      5 C          64.8049   91.8603   12.3144 C.ar    1  UNL1        0.0044
      6 C          63.6713   91.1619   11.6237 C.ar    1  UNL1        0.0369
      7 C          66.5126   91.9885   14.2682 C.2     1  UNL1        0.0858
      8 N          67.8723   92.2470   13.6899 N.2     1  UNL1       -0.1523
      9 N          68.6857   92.9692   14.7228 N.2     1  UNL1       -0.1511
     10 C          67.8287   93.1570   15.9395 C.2     1  UNL1        0.1013
     11 C          66.4857   92.5509   15.6585 C.3     1  UNL1        0.0852
     12 C          65.3203   92.5138   16.6022 C.3     1  UNL1        0.0128
     13 O          61.9780   89.1951   11.5052 O.3     1  UNL1       -0.4755
     14 C          62.1570   87.7946   10.9987 C.3     1  UNL1        0.2054
     15 C          62.0164   87.5031    9.5340 C.3     1  UNL1        0.0473
     16 C          63.0011   85.3788    8.4080 C.3     1  UNL1        0.0001
     17 C          61.8533   86.0883    9.0631 C.3     1  UNL1        0.0038
@<TRIPOS>BOND
     1    16    17    1
     2    17    15    1
     3    15    14    1
     4    14    13    1
     5    13     1    1
     6     1     2   ar
     7     2     3   ar
     8     3     4   ar
     9     4     7    1
    10     7     8    2
    11     8     9    1
    12     9    10    2
    13    10    11    1
    14    11    12    1
    15     4     5   ar
    16     5     6   ar
    17     6     1   ar
    18    11     7    1
@<TRIPOS>MOLECULE
*****
 17 18 0 0 0
SMALL
GASTEIGER

@<TRIPOS>ATOM
      1 C          63.0411   88.0450   12.1498 C.ar    1  UNL1        0.1386
      2 C          62.8301   89.5089   11.8994 C.ar    1  UNL1        0.0369
      3 C          63.3216   90.5183   12.8941 C.ar    1  UNL1        0.0044
      4 C          64.0241   90.0640   14.1391 C.ar    1  UNL1        0.0159
      5 C          64.2350   88.6002   14.3895 C.ar    1  UNL1        0.0044
      6 C          63.7435   87.5907   13.3948 C.ar    1  UNL1        0.0369
      7 C          64.5156   91.0735   15.1338 C.2     1  UNL1        0.0858
      8 N          63.7599   91.5738   16.3291 N.2     1  UNL1       -0.1523
      9 N          64.6263   92.5694   17.0419 N.2     1  UNL1       -0.1511
     10 C          65.9175   92.6844   16.2872 C.2     1  UNL1        0.1013
     11 C          65.8490   91.7598   15.1080 C.3     1  UNL1        0.0852
     12 C          66.9252   91.5573   14.0828 C.3     1  UNL1        0.0128
     13 O          62.5496   87.0356   11.1551 O.3     1  UNL1       -0.4755
     14 C          62.0330   85.7085   11.6261 C.3     1  UNL1        0.2054
     15 C          62.7584   84.4480   11.2589 C.3     1  UNL1        0.0473
     16 C          62.5885   81.9920   12.0892 C.3     1  UNL1        0.0001
     17 C          63.0326   83.4085   12.3050 C.3     1  UNL1        0.0038
@<TRIPOS>BOND
     1    16    17    1
     2    17    15    1
     3    15    14    1
     4    14    13    1
     5    13     1    1
     6     1     2   ar
     7     2     3   ar
     8     3     4   ar
     9     4     7    1
    10     7     8    2
    11     8     9    1
    12     9    10    2
    13    10    11    1
    14    11    12    1
    15     4     5   ar
    16     5     6   ar
    17     6     1   ar
    18    11     7    1
@<TRIPOS>MOLECULE
*****
 17 18 0 0 0
SMALL
GASTEIGER

@<TRIPOS>ATOM
      1 C          62.1748   89.5303   10.3542 C.ar    1  UNL1        0.1386
      2 C          62.5496   88.9540   11.6873 C.ar    1  UNL1        0.0369
      3 C          63.4697   89.7101   12.5994 C.ar    1  UNL1        0.0044
      4 C          64.0148   91.0426   12.1783 C.ar    1  UNL1        0.0159
      5 C          63.6400   91.6188   10.8451 C.ar    1  UNL1        0.0044
      6 C          62.7199   90.8627    9.9331 C.ar    1  UNL1        0.0369
      7 C          64.9348   91.7987   13.0903 C.2     1  UNL1        0.0858
      8 N          64.7651   91.9683   14.5710 N.2     1  UNL1       -0.1523
      9 N          65.9115   92.7924   15.0776 N.2     1  UNL1       -0.1511
     10 C          66.7897   93.1322   13.9100 C.2     1  UNL1        0.1013
     11 C          66.1861   92.5180   12.6818 C.3     1  UNL1        0.0852
     12 C          66.7370   92.6075   11.2895 C.3     1  UNL1        0.0128
     13 O          61.2548   88.7741    9.4422 O.3     1  UNL1       -0.4755
     14 C          60.6968   87.4492    9.8700 C.3     1  UNL1        0.2054
     15 C          61.0922   86.1985    9.1423 C.3     1  UNL1        0.0473
     16 C          62.8883   84.8939    7.7924 C.3     1  UNL1        0.0001
     17 C          62.5289   85.9639    8.7803 C.3     1  UNL1        0.0038
@<TRIPOS>BOND
     1    16    17    1
     2    17    15    1
     3    15    14    1
     4    14    13    1
     5    13     1    1
     6     1     2   ar
     7     2     3   ar
     8     3     4   ar
     9     4     7    1
    10     7     8    2
    11     8     9    1
    12     9    10    2
    13    10    11    1
    14    11    12    1
    15     4     5   ar
    16     5     6   ar
    17     6     1   ar
    18    11     7    1
@<TRIPOS>MOLECULE
*****
 17 18 0 0 0
SMALL
GASTEIGER

@<TRIPOS>ATOM
      1 C          65.0771   92.1076   12.6728 C.ar    1  UNL1        0.1386
      2 C          64.5958   91.1363   13.7095 C.ar    1  UNL1        0.0369
      3 C          63.5970   90.0797   13.3410 C.ar    1  UNL1        0.0044
      4 C          63.0794   89.9944   11.9357 C.ar    1  UNL1        0.0159
      5 C          63.5607   90.9657   10.8990 C.ar    1  UNL1        0.0044
      6 C          64.5596   92.0223   11.2675 C.ar    1  UNL1        0.0369
      7 C          62.0806   88.9377   11.5671 C.2     1  UNL1        0.0858
      8 N          62.3159   87.4564   11.5878 N.2     1  UNL1       -0.1523
      9 N          61.0518   86.7801   11.1466 N.2     1  UNL1       -0.1511
     10 C          60.0352   87.8433   10.8533 C.2     1  UNL1        0.1013
     11 C          60.6711   89.1768   11.1131 C.3     1  UNL1        0.0852
     12 C          60.0129   90.5146   10.9480 C.3     1  UNL1        0.0128
     13 O          66.0759   93.1643   13.0414 O.3     1  UNL1       -0.4755
     14 C          66.6271   93.2218   14.4352 C.3     1  UNL1        0.2054
     15 C          67.6499   92.2184   14.8793 C.3     1  UNL1        0.0473
     16 C          69.0430   94.0803   16.0382 C.3     1  UNL1        0.0001
     17 C          68.7391   92.6268   15.8264 C.3     1  UNL1        0.0038
@<TRIPOS>BOND
     1    16    17    1
     2    17    15    1
     3    15    14    1
     4    14    13    1
     5    13     1    1
     6     1     2   ar
     7     2     3   ar
     8     3     4   ar
     9     4     7    1
    10     7     8    2
    11     8     9    1
    12     9    10    2
    13    10    11    1
    14    11    12    1
    15     4     5   ar
    16     5     6   ar
    17     6     1   ar
    18    11     7    1
