@<TRIPOS>MOLECULE
*****
 111 123 0 0 0
SMALL
GASTEIGER

@<TRIPOS>ATOM
      1 C          45.7889   94.7633    3.4452 C.2     1  UNL1        0.1319
      2 C          44.9497   94.4598    4.6508 C.3     1  UNL1        0.0733
      3 C          47.2413   94.3888    3.4288 C.2     1  UNL1        0.1046
      4 N          47.2868   93.7812    4.7995 N.am    1  UNL1       -0.2788
      5 C          47.6798   93.1185    6.0866 C.2     1  UNL1        0.2466
      6 O          46.3331   93.1868    6.7436 O.2     1  UNL1       -0.2729
      7 C          48.3975   92.4395    7.2151 C.3     1  UNL1        0.1762
      8 N          49.3981   91.7835    8.1198 N.am    1  UNL1       -0.2916
      9 C          50.6235   91.1886    8.7479 C.2     1  UNL1        0.2645
     10 O          49.9865   90.7915   10.0465 O.2     1  UNL1       -0.2685
     11 C          52.5380   90.5779    8.9957 C.ar    1  UNL1        0.1415
     12 C          53.0317   89.9063   10.2428 C.ar    1  UNL1        0.0606
     13 S          54.4892   89.6029   10.0598 S.2     1  UNL1       -0.0657
     14 C          54.8964   90.0870    8.6997 C.ar    1  UNL1        0.1125
     15 N          53.6904   90.6896    8.0421 N.ar    1  UNL1       -0.2337
     16 C          56.2430   90.0188    8.0427 C.ar    1  UNL1        0.0460
     17 C          56.4057   89.3886    9.3942 C.ar    1  UNL1        0.0421
     18 C          57.7421   88.8541    9.8165 C.ar    1  UNL1        0.1583
     19 C          58.9157   88.9495    8.8874 C.ar    1  UNL1        0.1388
     20 N          58.7531   89.5796    7.5358 N.ar    1  UNL1       -0.2386
     21 C          57.4168   90.1142    7.1135 C.ar    1  UNL1        0.1015
     22 C          58.3493   90.3678    5.9663 C.ar    1  UNL1        0.1057
     23 C          59.8073   90.0354    5.8498 C.ar    1  UNL1        0.0572
     24 S          60.2816   90.4960    4.5033 S.2     1  UNL1       -0.0685
     25 C          59.2909   91.2822    3.2930 C.ar    1  UNL1        0.1099
     26 N          58.9863   90.7649    4.6676 N.ar    1  UNL1       -0.2394
     27 C          59.2454   91.8899    1.9224 C.3     1  UNL1        0.1628
     28 C          60.2899   92.0763    0.8621 C.3     1  UNL1        0.2348
     29 O          60.8304   92.5122   -0.4676 O.3     1  UNL1       -0.4421
     30 C          60.7730   93.1222   -1.8367 C.2     1  UNL1        0.3604
     31 O          62.1864   92.9571   -2.3111 O.2     1  UNL1       -0.2431
     32 C          60.1281   93.8010   -3.0086 C.ar    1  UNL1        0.1710
     33 C          59.0069   94.4310   -3.7806 C.ar    1  UNL1        0.0340
     34 C          59.5473   94.8669   -5.1103 C.ar    1  UNL1        0.0186
     35 C          58.9023   95.5457   -6.2821 C.ar    1  UNL1        0.0226
     36 C          59.7124   95.8638   -7.5038 C.ar    1  UNL1       -0.0006
     37 C          61.1676   95.5031   -7.5536 C.ar    1  UNL1        0.0014
     38 C          61.8126   94.8244   -6.3817 C.ar    1  UNL1        0.0205
     39 C          61.0024   94.5063   -5.1600 C.ar    1  UNL1        0.0972
     40 N          61.3613   93.8475   -3.8611 N.ar    1  UNL1       -0.1772
     41 O          62.7158   93.3266   -3.4814 O.3     1  UNL1       -0.4257
     42 C          57.3515   96.1028   -6.6265 C.3     1  UNL1        0.2351
     43 O          55.8957   96.3900   -6.4075 O.3     1  UNL1       -0.4418
     44 C          54.7672   96.2607   -5.4277 C.2     1  UNL1        0.3474
     45 O          53.5400   96.8549   -6.0531 O.2     1  UNL1       -0.2473
     46 C          54.3972   95.7641   -4.0615 C.3     1  UNL1        0.2447
     47 C          54.9269   95.0900   -2.8307 C.3     1  UNL1        0.1777
     48 O          56.1602   95.1366   -3.6832 O.3     1  UNL1       -0.3462
     49 C          57.6034   94.9035   -4.0192 C.3     1  UNL1        0.1705
     50 C          53.0773   95.3561   -2.3247 C.3     1  UNL1        0.1489
     51 N          51.6358   95.5841   -1.9779 N.am    1  UNL1       -0.2936
     52 C          50.2892   95.6523   -1.3208 C.2     1  UNL1        0.2644
     53 O          49.5715   96.3314   -2.4495 O.2     1  UNL1       -0.2685
     54 C          49.1155   95.5568   -0.3918 C.ar    1  UNL1        0.1415
     55 C          47.7057   96.0214   -0.6084 C.ar    1  UNL1        0.0606
     56 S          46.9152   95.6936    0.6236 S.2     1  UNL1       -0.0645
     57 C          47.5460   94.9062    2.0542 C.ar    1  UNL1        0.1270
     58 N          48.1830   95.3032    0.7555 N.ar    1  UNL1       -0.2324
     59 C          54.5297   94.9817   -2.3411 C.ar    1  UNL1        0.1087
     60 N          55.9087   94.4824   -2.0261 N.ar    1  UNL1       -0.2364
     61 C          57.1341   93.8876   -1.3980 C.ar    1  UNL1        0.1412
     62 C          56.1229   93.6802   -0.3097 C.ar    1  UNL1        0.0603
     63 S          54.8111   94.2313   -0.7847 S.2     1  UNL1       -0.0684
     64 C          58.1347   93.2315   -0.4934 C.2     1  UNL1        0.2644
     65 O          59.3084   93.3270   -1.4225 O.2     1  UNL1       -0.2685
     66 N          58.8524   92.5525    0.6353 N.am    1  UNL1       -0.2927
     67 H          46.3408   93.9308    5.0271 H       1  UNL1        0.1550
     68 H          48.7861   91.6170    8.8728 H       1  UNL1        0.1502
     69 H          63.4312   93.3998   -4.0822 H       1  UNL1        0.3257
     70 H          51.3779   96.0189   -2.8226 H       1  UNL1        0.1502
     71 H          59.7363   92.5077    0.2040 H       1  UNL1        0.1502
     72 C          60.2521   88.4149    9.3096 C.ar    1  UNL1        0.1315
     73 N          60.4883   87.3196   10.3069 N.ar    1  UNL1       -0.2321
     74 C          61.9690   87.1094   10.4224 C.ar    1  UNL1        0.1415
     75 C          62.6479   88.0748    9.4967 C.ar    1  UNL1        0.0606
     76 S          61.5867   88.8817    8.8089 S.2     1  UNL1       -0.0642
     77 C          62.6512   86.1094   11.3083 C.2     1  UNL1        0.2641
     78 O          62.8458   84.6989   10.8361 O.2     1  UNL1       -0.2685
     79 N          63.1388   86.5198   12.6662 N.am    1  UNL1       -0.2996
     80 H          63.0111   87.4455   12.9760 H       1  UNL1        0.1498
     81 C          63.8210   85.5197   13.5519 C.3     1  UNL1        0.0912
     82 C          63.0556   84.8487   14.6536 C.3     1  UNL1        0.0386
     83 C          61.8381   84.0335   14.3324 C.3     1  UNL1        0.0740
     84 N          61.9706   82.5659   14.0521 N.3     1  UNL1       -0.2684
     85 C          63.3306   81.9495   13.9089 C.3     1  UNL1        0.1046
     86 C          63.4631   80.4818   13.6286 C.3     1  UNL1        0.1595
     87 O          62.2357   79.6307   13.4916 O.3     1  UNL1       -0.3508
     88 C          60.8756   80.2471   13.6348 C.3     1  UNL1        0.1595
     89 C          60.7431   81.7146   13.9151 C.3     1  UNL1        0.1046
     90 C          47.2238   92.3441    8.1443 C.3     1  UNL1        0.1373
     91 C          47.3976   92.6381    9.6049 C.3     1  UNL1        0.0340
     92 O          45.8763   91.9546    7.6129 O.3     1  UNL1       -0.3823
     93 H          45.2338   91.9405    8.3395 H       1  UNL1        0.2104
     94 C          44.5834   96.8121    2.3968 C.3     1  UNL1        0.2520
     95 O          45.1757   95.4412    2.2559 O.2     1  UNL1       -0.4744
     96 O          57.9047   88.2239   11.1680 O.3     1  UNL1       -0.4698
     97 C          58.4061   89.0416   12.3212 C.3     1  UNL1        0.2525
     98 O          52.9413   96.0515   -3.8425 O.3     1  UNL1       -0.3190
     99 C          51.9055   95.3477   -4.6682 C.3     1  UNL1        0.2380
    100 C          50.5992   96.0219   -4.9668 C.3     1  UNL1        0.0896
    101 C          49.5635   95.3181   -5.7925 C.3     1  UNL1        0.1089
    102 C          48.2788   95.0619   -6.5234 C.3     1  UNL1        0.0310
    103 O          48.8468   96.6071   -5.5192 O.3     1  UNL1       -0.3852
    104 C          49.8340   93.9400   -6.3197 C.3     1  UNL1        0.1099
    105 C          51.1403   93.2658   -6.0212 C.3     1  UNL1        0.1347
    106 C          51.4108   91.8879   -6.5484 C.3     1  UNL1        0.0337
    107 O          52.1760   93.9697   -5.1954 O.3     1  UNL1       -0.3315
    108 H          49.4105   97.1821   -4.9784 H       1  UNL1        0.2103
    109 N          48.7983   93.2362   -7.1455 N.3     1  UNL1       -0.2675
    110 C          49.0104   91.8097   -7.5582 C.3     1  UNL1        0.0898
    111 C          47.5504   93.9588   -7.5586 C.3     1  UNL1        0.0898
@<TRIPOS>BOND
     1    94    95    1
     2    95     1    1
     3     1     2    1
     4     1     3    2
     5     3     4    1
     6     4     5   am
     7     5     6    2
     8     5     7    1
     9     7    90    1
    10    90    91    1
    11    90    92    1
    12     7     8    1
    13     8     9   am
    14     9    10    2
    15     9    11    1
    16    11    12   ar
    17    12    13   ar
    18    13    14   ar
    19    14    15   ar
    20    14    16    1
    21    16    17   ar
    22    17    18   ar
    23    18    96    1
    24    96    97    1
    25    18    19   ar
    26    19    72    1
    27    72    73   ar
    28    73    74   ar
    29    74    77    1
    30    77    78    2
    31    77    79   am
    32    79    81    1
    33    81    82    1
    34    82    83    1
    35    83    84    1
    36    84    85    1
    37    85    86    1
    38    86    87    1
    39    87    88    1
    40    88    89    1
    41    74    75   ar
    42    75    76   ar
    43    19    20   ar
    44    20    21   ar
    45    21    22    1
    46    22    23   ar
    47    23    24   ar
    48    24    25   ar
    49    25    26   ar
    50    25    27    1
    51    27    28    1
    52    28    29    1
    53    29    30    1
    54    30    31    2
    55    30    32    1
    56    32    33   ar
    57    33    34   ar
    58    34    35   ar
    59    35    36   ar
    60    36    37   ar
    61    37    38   ar
    62    38    39   ar
    63    39    40   ar
    64    40    41    1
    65    35    42    1
    66    42    43    1
    67    43    44    1
    68    44    45    2
    69    44    46    1
    70    46    98    1
    71    99    98    1
    72    99   100    1
    73   100   101    1
    74   101   102    1
    75   101   103    1
    76   101   104    1
    77   104   109    1
    78   109   110    1
    79   109   111    1
    80   104   105    1
    81   105   106    1
    82   105   107    1
    83    46    47    1
    84    47    48    1
    85    48    49    1
    86    47    50    1
    87    50    51    1
    88    51    52   am
    89    52    53    2
    90    52    54    1
    91    54    55   ar
    92    55    56   ar
    93    56    57   ar
    94    57    58   ar
    95    50    59    1
    96    59    60   ar
    97    60    61   ar
    98    61    62   ar
    99    62    63   ar
   100    61    64    1
   101    64    65    2
   102    64    66   am
   103    57     3    1
   104    63    59   ar
   105    15    11   ar
   106    21    16   ar
   107    26    22   ar
   108    66    27    1
   109    76    72   ar
   110    40    32   ar
   111   107    99    1
   112    58    54   ar
   113    89    84    1
   114    49    33    1
   115    39    34   ar
   116     4    67    1
   117    92    93    1
   118     8    68    1
   119    79    80    1
   120    41    69    1
   121   103   108    1
   122    51    70    1
   123    66    71    1
