@<TRIPOS>MOLECULE
*****
 25 28 0 0 0
SMALL
GASTEIGER

@<TRIPOS>ATOM
      1 C          62.0513   87.8540   10.8951 C.2     1  UNL1        0.3563
      2 N          62.3912   86.9209   12.0194 N.2     1  UNL1       -0.0039
      3 C          62.7151   85.4851   11.7306 C.2     1  UNL1        0.3159
      4 C          62.6991   84.9823   10.3174 C.3     1  UNL1        0.2333
      5 C          62.3592   85.9152    9.1932 C.2     1  UNL1        0.3644
      6 O          62.3432   85.4124    7.7801 O.2     1  UNL1       -0.2422
      7 N          62.0353   87.3511    9.4820 N.am    1  UNL1        0.0288
      8 N          63.0551   84.5520   12.8548 N.pl3   1  UNL1       -0.1888
      9 C          62.6911   83.0999   12.7604 C.3     1  UNL1        0.2343
     10 C          63.0310   82.1669   13.8846 C.3     1  UNL1        0.1929
     11 O          63.7349   82.6860   15.1032 O.3     1  UNL1       -0.3449
     12 C          64.0988   84.1381   15.1977 C.3     1  UNL1        0.1929
     13 C          63.7589   85.0711   14.0735 C.3     1  UNL1        0.2343
     14 C          61.7274   89.2898   11.1840 C.3     1  UNL1        0.1852
     15 N          63.5524   90.5176   12.7028 N.ar    1  UNL1       -0.3144
     16 C          62.8335   90.2777   11.4083 C.ar    1  UNL1        0.1328
     17 N          63.4151   91.1992   10.3775 N.ar    1  UNL1       -0.2303
     18 C          64.4934   92.0087   11.0350 C.ar    1  UNL1        0.0983
     19 C          65.4089   93.0749   10.5106 C.ar    1  UNL1        0.0206
     20 C          66.4093   93.7198   11.4235 C.ar    1  UNL1        0.0016
     21 C          66.4941   93.2986   12.8606 C.ar    1  UNL1        0.0016
     22 C          65.5786   92.2324   13.3849 C.ar    1  UNL1        0.0188
     23 C          64.5782   91.5874   12.4721 C.ar    1  UNL1        0.0786
     24 C          64.2769   88.8073   14.5193 C.3     1  UNL1        0.0265
     25 C          63.2912   89.8117   14.0003 C.3     1  UNL1        0.1073
@<TRIPOS>BOND
     1    24    25    1
     2    25    15    1
     3    15    16   ar
     4    16    14    1
     5    14     1    1
     6     1     2    1
     7     2     3    2
     8     3     8    1
     9     8     9    1
    10     9    10    1
    11    10    11    1
    12    11    12    1
    13    12    13    1
    14     3     4    1
    15     4     5    1
    16     5     6    2
    17     5     7    1
    18    16    17   ar
    19    17    18   ar
    20    18    19   ar
    21    19    20   ar
    22    20    21   ar
    23    21    22   ar
    24    22    23   ar
    25    23    15   ar
    26     7     1    2
    27    23    18   ar
    28    13     8    1
@<TRIPOS>MOLECULE
*****
 25 28 0 0 0
SMALL
GASTEIGER

@<TRIPOS>ATOM
      1 C          64.0276   87.7107   13.7782 C.2     1  UNL1        0.3563
      2 N          63.1719   87.5009   12.5641 N.2     1  UNL1       -0.0039
      3 C          62.6712   88.6816   11.7862 C.2     1  UNL1        0.3159
      4 C          63.0261   90.0722   12.2224 C.3     1  UNL1        0.2333
      5 C          63.8817   90.2821   13.4364 C.2     1  UNL1        0.3644
      6 O          64.2366   91.6727   13.8725 O.2     1  UNL1       -0.2422
      7 N          64.3825   89.1013   14.2143 N.am    1  UNL1        0.0288
      8 N          61.8156   88.4717   10.5721 N.pl3   1  UNL1       -0.1888
      9 C          61.0513   89.6214    9.9855 C.3     1  UNL1        0.2343
     10 C          60.1957   89.4116    8.7715 C.3     1  UNL1        0.1929
     11 O          60.1044   88.0522    8.1441 O.3     1  UNL1       -0.3449
     12 C          60.8688   86.9025    8.7308 C.3     1  UNL1        0.1929
     13 C          61.7243   87.1123    9.9448 C.3     1  UNL1        0.2343
     14 C          64.5283   86.5300   14.5561 C.3     1  UNL1        0.1852
     15 N          62.8967   84.4482   14.9423 N.ar    1  UNL1       -0.3144
     16 C          64.0195   85.1544   14.2418 C.ar    1  UNL1        0.1328
     17 N          64.5440   84.2434   13.1717 N.ar    1  UNL1       -0.2303
     18 C          63.7455   82.9742   13.2110 C.ar    1  UNL1        0.0983
     19 C          63.8139   81.7196   12.3916 C.ar    1  UNL1        0.0206
     20 C          62.8643   80.5916   12.6666 C.ar    1  UNL1        0.0016
     21 C          61.8462   80.7182   13.7609 C.ar    1  UNL1        0.0016
     22 C          61.7778   81.9727   14.5802 C.ar    1  UNL1        0.0188
     23 C          62.7274   83.1007   14.3053 C.ar    1  UNL1        0.0786
     24 C          62.7454   85.8231   17.1415 C.3     1  UNL1        0.0265
     25 C          62.0857   84.9936   16.0802 C.3     1  UNL1        0.1073
@<TRIPOS>BOND
     1    24    25    1
     2    25    15    1
     3    15    16   ar
     4    16    14    1
     5    14     1    1
     6     1     2    1
     7     2     3    2
     8     3     8    1
     9     8     9    1
    10     9    10    1
    11    10    11    1
    12    11    12    1
    13    12    13    1
    14     3     4    1
    15     4     5    1
    16     5     6    2
    17     5     7    1
    18    16    17   ar
    19    17    18   ar
    20    18    19   ar
    21    19    20   ar
    22    20    21   ar
    23    21    22   ar
    24    22    23   ar
    25    23    15   ar
    26     7     1    2
    27    23    18   ar
    28    13     8    1
@<TRIPOS>MOLECULE
*****
 25 28 0 0 0
SMALL
GASTEIGER

@<TRIPOS>ATOM
      1 C          64.2803   91.2789   13.1923 C.2     1  UNL1        0.3563
      2 N          64.8598   92.0680   12.0558 N.2     1  UNL1       -0.0039
      3 C          65.9486   93.0667   12.3145 C.2     1  UNL1        0.3159
      4 C          66.4579   93.2765   13.7097 C.3     1  UNL1        0.2333
      5 C          65.8784   92.4876   14.8462 C.2     1  UNL1        0.3644
      6 O          66.3877   92.6974   16.2414 O.2     1  UNL1       -0.2422
      7 N          64.7896   91.4887   14.5875 N.am    1  UNL1        0.0288
      8 N          66.5281   93.8558   11.1780 N.pl3   1  UNL1       -0.1888
      9 C          67.2915   93.1569   10.0922 C.3     1  UNL1        0.2343
     10 C          67.8710   93.9459    8.9557 C.3     1  UNL1        0.1929
     11 O          67.6872   95.4337    8.9050 O.3     1  UNL1       -0.3449
     12 C          66.9238   96.1325    9.9908 C.3     1  UNL1        0.1929
     13 C          66.3443   95.3436   11.1272 C.3     1  UNL1        0.2343
     14 C          63.1915   90.2802   12.9336 C.3     1  UNL1        0.1852
     15 N          62.9952   87.6935   12.2890 N.ar    1  UNL1       -0.3144
     16 C          63.4403   88.8205   13.1731 C.ar    1  UNL1        0.1328
     17 N          64.1781   88.2314   14.3388 N.ar    1  UNL1       -0.2303
     18 C          64.1888   86.7404   14.1751 C.ar    1  UNL1        0.0983
     19 C          64.7699   85.6426   15.0159 C.ar    1  UNL1        0.0206
     20 C          64.6198   84.2122   14.5898 C.ar    1  UNL1        0.0016
     21 C          63.8887   83.8798   13.3230 C.ar    1  UNL1        0.0016
     22 C          63.3077   84.9776   12.4821 C.ar    1  UNL1        0.0188
     23 C          63.4577   86.4080   12.9082 C.ar    1  UNL1        0.0786
     24 C          60.9038   87.1318   10.8534 C.3     1  UNL1        0.0265
     25 C          62.2230   87.8283   11.0101 C.3     1  UNL1        0.1073
@<TRIPOS>BOND
     1    24    25    1
     2    25    15    1
     3    15    16   ar
     4    16    14    1
     5    14     1    1
     6     1     2    1
     7     2     3    2
     8     3     8    1
     9     8     9    1
    10     9    10    1
    11    10    11    1
    12    11    12    1
    13    12    13    1
    14     3     4    1
    15     4     5    1
    16     5     6    2
    17     5     7    1
    18    16    17   ar
    19    17    18   ar
    20    18    19   ar
    21    19    20   ar
    22    20    21   ar
    23    21    22   ar
    24    22    23   ar
    25    23    15   ar
    26     7     1    2
    27    23    18   ar
    28    13     8    1
@<TRIPOS>MOLECULE
*****
 25 28 0 0 0
SMALL
GASTEIGER

@<TRIPOS>ATOM
      1 C          64.8517   91.2362   13.7221 C.2     1  UNL1        0.3563
      2 N          65.2266   91.9582   12.4618 N.2     1  UNL1       -0.0039
      3 C          66.5618   92.6330   12.3529 C.2     1  UNL1        0.3159
      4 C          67.5221   92.5859   13.5042 C.3     1  UNL1        0.2333
      5 C          67.1473   91.8640   14.7645 C.2     1  UNL1        0.3644
      6 O          68.1076   91.8170   15.9158 O.2     1  UNL1       -0.2422
      7 N          65.8121   91.1892   14.8735 N.am    1  UNL1        0.0288
      8 N          66.9367   93.3549   11.0925 N.pl3   1  UNL1       -0.1888
      9 C          67.6978   92.6391   10.0163 C.3     1  UNL1        0.2343
     10 C          68.0727   93.3609    8.7560 C.3     1  UNL1        0.1929
     11 O          67.6865   94.7986    8.5720 O.3     1  UNL1       -0.3449
     12 C          66.9254   95.5144    9.6483 C.3     1  UNL1        0.1929
     13 C          66.5505   94.7926   10.9085 C.3     1  UNL1        0.2343
     14 C          63.5166   90.5614   13.8311 C.3     1  UNL1        0.1852
     15 N          62.5561   89.4061   11.6202 N.ar    1  UNL1       -0.3144
     16 C          63.2051   89.3718   12.9721 C.ar    1  UNL1        0.1328
     17 N          63.4880   87.9390   13.3141 N.ar    1  UNL1       -0.2303
     18 C          63.0139   87.0878   12.1736 C.ar    1  UNL1        0.0983
     19 C          63.0322   85.6042   11.9532 C.ar    1  UNL1        0.0206
     20 C          62.4745   85.0274   10.6858 C.ar    1  UNL1        0.0016
     21 C          61.8985   85.9342    9.6389 C.ar    1  UNL1        0.0016
     22 C          61.8802   87.4178    9.8593 C.ar    1  UNL1        0.0188
     23 C          62.4379   87.9946   11.1267 C.ar    1  UNL1        0.0786
     24 C          63.0502   91.3535    9.9728 C.3     1  UNL1        0.0265
     25 C          62.1046   90.6361   10.8899 C.3     1  UNL1        0.1073
@<TRIPOS>BOND
     1    24    25    1
     2    25    15    1
     3    15    16   ar
     4    16    14    1
     5    14     1    1
     6     1     2    1
     7     2     3    2
     8     3     8    1
     9     8     9    1
    10     9    10    1
    11    10    11    1
    12    11    12    1
    13    12    13    1
    14     3     4    1
    15     4     5    1
    16     5     6    2
    17     5     7    1
    18    16    17   ar
    19    17    18   ar
    20    18    19   ar
    21    19    20   ar
    22    20    21   ar
    23    21    22   ar
    24    22    23   ar
    25    23    15   ar
    26     7     1    2
    27    23    18   ar
    28    13     8    1
@<TRIPOS>MOLECULE
*****
 25 28 0 0 0
SMALL
GASTEIGER

@<TRIPOS>ATOM
      1 C          64.1866   87.8817   13.9675 C.2     1  UNL1        0.3563
      2 N          64.8823   89.1823   14.2407 N.2     1  UNL1       -0.0039
      3 C          64.6075   90.3761   13.3752 C.2     1  UNL1        0.3159
      4 C          63.6369   90.2694   12.2365 C.3     1  UNL1        0.2333
      5 C          62.9412   88.9690   11.9633 C.2     1  UNL1        0.3644
      6 O          61.9706   88.8623   10.8246 O.2     1  UNL1       -0.2422
      7 N          63.2160   87.7750   12.8288 N.am    1  UNL1        0.0288
      8 N          65.3033   91.6767   13.6483 N.pl3   1  UNL1       -0.1888
      9 C          65.4912   92.6732   12.5431 C.3     1  UNL1        0.2343
     10 C          66.1869   93.9737   12.8162 C.3     1  UNL1        0.1929
     11 O          66.6947   94.2777   14.1944 O.3     1  UNL1       -0.3449
     12 C          66.5068   93.2811   15.2997 C.3     1  UNL1        0.1929
     13 C          65.8111   91.9806   15.0266 C.3     1  UNL1        0.2343
     14 C          64.4614   86.6879   14.8331 C.3     1  UNL1        0.1852
     15 N          62.9582   84.4929   15.0926 N.ar    1  UNL1       -0.3144
     16 C          63.9970   85.3276   14.4041 C.ar    1  UNL1        0.1328
     17 N          64.4899   84.5632   13.2113 N.ar    1  UNL1       -0.2303
     18 C          63.7557   83.2561   13.1626 C.ar    1  UNL1        0.0983
     19 C          63.8269   82.0998   12.2097 C.ar    1  UNL1        0.0206
     20 C          62.9514   80.9001   12.4196 C.ar    1  UNL1        0.0016
     21 C          62.0047   80.8566   13.5823 C.ar    1  UNL1        0.0016
     22 C          61.9335   82.0129   14.5352 C.ar    1  UNL1        0.0188
     23 C          62.8090   83.2126   14.3253 C.ar    1  UNL1        0.0786
     24 C          62.6439   86.0478   17.1500 C.3     1  UNL1        0.0265
     25 C          62.2013   84.8718   16.3309 C.3     1  UNL1        0.1073
@<TRIPOS>BOND
     1    24    25    1
     2    25    15    1
     3    15    16   ar
     4    16    14    1
     5    14     1    1
     6     1     2    1
     7     2     3    2
     8     3     8    1
     9     8     9    1
    10     9    10    1
    11    10    11    1
    12    11    12    1
    13    12    13    1
    14     3     4    1
    15     4     5    1
    16     5     6    2
    17     5     7    1
    18    16    17   ar
    19    17    18   ar
    20    18    19   ar
    21    19    20   ar
    22    20    21   ar
    23    21    22   ar
    24    22    23   ar
    25    23    15   ar
    26     7     1    2
    27    23    18   ar
    28    13     8    1
@<TRIPOS>MOLECULE
*****
 25 28 0 0 0
SMALL
GASTEIGER

@<TRIPOS>ATOM
      1 C          61.2754   88.5571   10.2104 C.2     1  UNL1        0.3563
      2 N          62.5597   89.2169   10.6170 N.2     1  UNL1       -0.0039
      3 C          62.5333   90.5506   11.3030 C.2     1  UNL1        0.3159
      4 C          61.2227   91.2246   11.5823 C.3     1  UNL1        0.2333
      5 C          59.9384   90.5648   11.1756 C.2     1  UNL1        0.3644
      6 O          58.6278   91.2388   11.4549 O.2     1  UNL1       -0.2422
      7 N          59.9648   89.2311   10.4897 N.am    1  UNL1        0.0288
      8 N          63.8176   91.2104   11.7097 N.pl3   1  UNL1       -0.1888
      9 C          64.6019   92.0058   10.7086 C.3     1  UNL1        0.2343
     10 C          65.8862   92.6656   11.1152 C.3     1  UNL1        0.1929
     11 O          66.3861   92.5300   12.5229 O.3     1  UNL1       -0.3449
     12 C          65.6017   91.7346   13.5240 C.3     1  UNL1        0.1929
     13 C          64.3175   91.0748   13.1174 C.3     1  UNL1        0.2343
     14 C          61.3018   87.2234    9.5244 C.3     1  UNL1        0.1852
     15 N          62.8492   85.0438    9.5286 N.ar    1  UNL1       -0.3144
     16 C          61.9556   86.0497   10.1916 C.ar    1  UNL1        0.1328
     17 N          61.8305   85.6759   11.6388 N.ar    1  UNL1       -0.2303
     18 C          62.6468   84.4389   11.8703 C.ar    1  UNL1        0.0983
     19 C          62.8982   83.6178   13.1001 C.ar    1  UNL1        0.0206
     20 C          63.7791   82.4061   13.0257 C.ar    1  UNL1        0.0016
     21 C          64.4087   82.0154   11.7215 C.ar    1  UNL1        0.0016
     22 C          64.1574   82.8365   10.4917 C.ar    1  UNL1        0.0188
     23 C          63.2764   84.0483   10.5661 C.ar    1  UNL1        0.0786
     24 C          62.2079   84.8201    7.0209 C.3     1  UNL1        0.0265
     25 C          63.2460   85.0350    8.0820 C.3     1  UNL1        0.1073
@<TRIPOS>BOND
     1    24    25    1
     2    25    15    1
     3    15    16   ar
     4    16    14    1
     5    14     1    1
     6     1     2    1
     7     2     3    2
     8     3     8    1
     9     8     9    1
    10     9    10    1
    11    10    11    1
    12    11    12    1
    13    12    13    1
    14     3     4    1
    15     4     5    1
    16     5     6    2
    17     5     7    1
    18    16    17   ar
    19    17    18   ar
    20    18    19   ar
    21    19    20   ar
    22    20    21   ar
    23    21    22   ar
    24    22    23   ar
    25    23    15   ar
    26     7     1    2
    27    23    18   ar
    28    13     8    1
@<TRIPOS>MOLECULE
*****
 25 28 0 0 0
SMALL
GASTEIGER

@<TRIPOS>ATOM
      1 C          64.8189   91.3429   13.6033 C.2     1  UNL1        0.3563
      2 N          65.1880   92.1104   12.3685 N.2     1  UNL1       -0.0039
      3 C          66.5435   92.7426   12.2555 C.2     1  UNL1        0.3159
      4 C          67.5300   92.6074   13.3774 C.3     1  UNL1        0.2333
      5 C          67.1609   91.8400   14.6122 C.2     1  UNL1        0.3644
      6 O          68.1474   91.7047   15.7341 O.2     1  UNL1       -0.2422
      7 N          65.8054   91.2077   14.7252 N.am    1  UNL1        0.0288
      8 N          66.9126   93.5101   11.0207 N.pl3   1  UNL1       -0.1888
      9 C          67.6582   92.8308    9.9103 C.3     1  UNL1        0.2343
     10 C          68.0273   93.5982    8.6755 C.3     1  UNL1        0.1929
     11 O          67.6509   95.0449    8.5510 O.3     1  UNL1       -0.3449
     12 C          66.9053   95.7241    9.6614 C.3     1  UNL1        0.1929
     13 C          66.5362   94.9567   10.8962 C.3     1  UNL1        0.2343
     14 C          63.4634   90.7107   13.7163 C.3     1  UNL1        0.1852
     15 N          63.5356   88.0774   13.2626 N.ar    1  UNL1       -0.3144
     16 C          63.1397   89.4826   12.9181 C.ar    1  UNL1        0.1328
     17 N          62.3633   89.4441   11.6353 N.ar    1  UNL1       -0.2303
     18 C          62.2793   88.0151   11.1869 C.ar    1  UNL1        0.0983
     19 C          61.6368   87.3739    9.9928 C.ar    1  UNL1        0.0206
     20 C          61.7187   85.8881    9.8045 C.ar    1  UNL1        0.0016
     21 C          62.4433   85.0434   10.8103 C.ar    1  UNL1        0.0016
     22 C          63.0858   85.6846   12.0044 C.ar    1  UNL1        0.0188
     23 C          63.0039   87.1704   12.1927 C.ar    1  UNL1        0.0786
     24 C          64.3645   86.2085   14.8657 C.3     1  UNL1        0.0265
     25 C          64.3247   87.6536   14.4658 C.3     1  UNL1        0.1073
@<TRIPOS>BOND
     1    24    25    1
     2    25    15    1
     3    15    16   ar
     4    16    14    1
     5    14     1    1
     6     1     2    1
     7     2     3    2
     8     3     8    1
     9     8     9    1
    10     9    10    1
    11    10    11    1
    12    11    12    1
    13    12    13    1
    14     3     4    1
    15     4     5    1
    16     5     6    2
    17     5     7    1
    18    16    17   ar
    19    17    18   ar
    20    18    19   ar
    21    19    20   ar
    22    20    21   ar
    23    21    22   ar
    24    22    23   ar
    25    23    15   ar
    26     7     1    2
    27    23    18   ar
    28    13     8    1
@<TRIPOS>MOLECULE
*****
 25 28 0 0 0
SMALL
GASTEIGER

@<TRIPOS>ATOM
      1 C          62.3927   88.9411   11.0629 C.2     1  UNL1        0.3563
      2 N          62.9337   88.0121   12.1091 N.2     1  UNL1       -0.0039
      3 C          62.8017   86.5282   11.9349 C.2     1  UNL1        0.3159
      4 C          62.1288   85.9731   10.7147 C.3     1  UNL1        0.2333
      5 C          61.5878   86.9020    9.6685 C.2     1  UNL1        0.3644
      6 O          60.9149   86.3470    8.4483 O.2     1  UNL1       -0.2422
      7 N          61.7198   88.3861    9.8427 N.am    1  UNL1        0.0288
      8 N          63.3427   85.5992   12.9811 N.pl3   1  UNL1       -0.1888
      9 C          63.9267   86.1534   14.2467 C.3     1  UNL1        0.2343
     10 C          64.4676   85.2245   15.2928 C.3     1  UNL1        0.1929
     11 O          64.4246   83.7413   15.0734 O.3     1  UNL1       -0.3449
     12 C          63.8406   83.1870   13.8078 C.3     1  UNL1        0.1929
     13 C          63.2996   84.1160   12.7616 C.3     1  UNL1        0.2343
     14 C          62.5247   90.4251   11.2371 C.3     1  UNL1        0.1852
     15 N          64.7039   91.8324   11.8821 N.ar    1  UNL1       -0.3144
     16 C          63.5158   90.9801   12.2168 C.ar    1  UNL1        0.1328
     17 N          63.4927   90.7803   13.7032 N.ar    1  UNL1       -0.2303
     18 C          64.6666   91.5090   14.2872 C.ar    1  UNL1        0.0983
     19 C          65.1506   91.6645   15.6984 C.ar    1  UNL1        0.0206
     20 C          66.3831   92.4703   15.9840 C.ar    1  UNL1        0.0016
     21 C          67.1316   93.1205   14.8585 C.ar    1  UNL1        0.0016
     22 C          66.6476   92.9650   13.4473 C.ar    1  UNL1        0.0188
     23 C          65.4151   92.1593   13.1616 C.ar    1  UNL1        0.0786
     24 C          65.9918   93.4806   10.3412 C.3     1  UNL1        0.0265
     25 C          65.1095   92.2793   10.5089 C.3     1  UNL1        0.1073
@<TRIPOS>BOND
     1    24    25    1
     2    25    15    1
     3    15    16   ar
     4    16    14    1
     5    14     1    1
     6     1     2    1
     7     2     3    2
     8     3     8    1
     9     8     9    1
    10     9    10    1
    11    10    11    1
    12    11    12    1
    13    12    13    1
    14     3     4    1
    15     4     5    1
    16     5     6    2
    17     5     7    1
    18    16    17   ar
    19    17    18   ar
    20    18    19   ar
    21    19    20   ar
    22    20    21   ar
    23    21    22   ar
    24    22    23   ar
    25    23    15   ar
    26     7     1    2
    27    23    18   ar
    28    13     8    1
@<TRIPOS>MOLECULE
*****
 25 28 0 0 0
SMALL
GASTEIGER

@<TRIPOS>ATOM
      1 C          63.9288   88.1708   13.9725 C.2     1  UNL1        0.3563
      2 N          63.1343   88.1386   12.7005 N.2     1  UNL1       -0.0039
      3 C          62.7788   86.8243   12.0713 C.2     1  UNL1        0.3159
      4 C          63.2177   85.5420   12.7140 C.3     1  UNL1        0.2333
      5 C          64.0121   85.5741   13.9860 C.2     1  UNL1        0.3644
      6 O          64.4510   84.2918   14.6287 O.2     1  UNL1       -0.2422
      7 N          64.3677   86.8885   14.6152 N.am    1  UNL1        0.0288
      8 N          61.9843   86.7921   10.7994 N.pl3   1  UNL1       -0.1888
      9 C          60.7596   87.6466   10.6583 C.3     1  UNL1        0.2343
     10 C          59.9651   87.6145    9.3864 C.3     1  UNL1        0.1929
     11 O          60.3953   86.7279    8.2556 O.3     1  UNL1       -0.3449
     12 C          61.6200   85.8734    8.3967 C.3     1  UNL1        0.1929
     13 C          62.4145   85.9055    9.6686 C.3     1  UNL1        0.2343
     14 C          64.2843   89.4852   14.6017 C.3     1  UNL1        0.1852
     15 N          65.5211   91.8151   14.1694 N.ar    1  UNL1       -0.3144
     16 C          64.6870   90.6448   13.7397 C.ar    1  UNL1        0.1328
     17 N          64.3262   90.8378   12.2965 N.ar    1  UNL1       -0.2303
     18 C          64.9374   92.1273   11.8344 C.ar    1  UNL1        0.0983
     19 C          64.9168   92.8296   10.5091 C.ar    1  UNL1        0.0206
     20 C          65.6348   94.1358   10.3413 C.ar    1  UNL1        0.0016
     21 C          66.3733   94.7399   11.4988 C.ar    1  UNL1        0.0016
     22 C          66.3938   94.0376   12.8241 C.ar    1  UNL1        0.0188
     23 C          65.6759   92.7314   12.9919 C.ar    1  UNL1        0.0786
     24 C          67.5865   92.0802   15.7230 C.3     1  UNL1        0.0265
     25 C          66.0990   92.0312   15.5366 C.3     1  UNL1        0.1073
@<TRIPOS>BOND
     1    24    25    1
     2    25    15    1
     3    15    16   ar
     4    16    14    1
     5    14     1    1
     6     1     2    1
     7     2     3    2
     8     3     8    1
     9     8     9    1
    10     9    10    1
    11    10    11    1
    12    11    12    1
    13    12    13    1
    14     3     4    1
    15     4     5    1
    16     5     6    2
    17     5     7    1
    18    16    17   ar
    19    17    18   ar
    20    18    19   ar
    21    19    20   ar
    22    20    21   ar
    23    21    22   ar
    24    22    23   ar
    25    23    15   ar
    26     7     1    2
    27    23    18   ar
    28    13     8    1
