@<TRIPOS>MOLECULE
*****
 44 47 0 0 0
SMALL
GASTEIGER

@<TRIPOS>ATOM
      1 N          61.6864   89.1655   10.5493 N.pl3   1  UNL1       -0.3043
      2 C          61.2103   89.4126   11.9501 C.3     1  UNL1        0.1123
      3 C          62.0917   90.1350   12.9254 C.3     1  UNL1        0.1149
      4 N          63.4494   90.6103   12.4999 N.am    1  UNL1       -0.2747
      5 C          64.3308   91.3326   13.4752 C.2     1  UNL1        0.2442
      6 O          63.8546   91.5797   14.8760 O.2     1  UNL1       -0.2731
      7 C          63.9255   90.3632   11.0992 C.3     1  UNL1        0.1149
      8 C          63.0440   89.6408   10.1238 C.3     1  UNL1        0.1123
      9 C          60.8920   86.9511    9.4469 C.ar    1  UNL1        0.0088
     10 C          60.0106   86.2288    8.4716 C.ar    1  UNL1       -0.0015
     11 C          59.0420   86.9985    7.6234 C.ar    1  UNL1       -0.0002
     12 C          58.9549   88.4905    7.7505 C.ar    1  UNL1        0.0012
     13 C          59.8364   89.2128    8.7258 C.ar    1  UNL1        0.0143
     14 C          60.8049   88.4431    9.5740 C.ar    1  UNL1        0.0454
     15 C          61.8606   86.1814   10.2951 C.3     1  UNL1        0.0952
     16 C          62.4737   85.0632   12.5586 C.2     1  UNL1        0.2241
     17 O          63.8238   84.7015   12.0143 O.2     1  UNL1       -0.2750
     18 N          61.4921   85.8031   11.6990 N.am    1  UNL1       -0.3021
     19 H          60.6060   86.0405   12.0562 H       1  UNL1        0.1497
     20 C          62.1051   84.6849   13.9626 C.3     1  UNL1        0.1021
     21 C          62.9125   83.6573   14.6990 C.3     1  UNL1        0.0783
     22 C          61.9771   81.3240   14.0429 C.3     1  UNL1        0.0859
     23 N          62.2868   82.3516   15.0908 N.3     1  UNL1       -0.2959
     24 H          62.9196   81.9104   15.7580 H       1  UNL1        0.1233
     25 C          63.1977   85.7899    9.7393 C.3     1  UNL1        0.0242
     26 C          63.3209   84.5765    8.8661 C.3     1  UNL1        0.0020
     27 C          62.9360   84.6521    7.4183 C.3     1  UNL1        0.0001
     28 C          63.8290   83.2874    9.4407 C.3     1  UNL1        0.0001
     29 C          65.6884   91.8079   13.0498 C.3     1  UNL1        0.1564
     30 N          66.6608   92.3139   14.0736 N.am    1  UNL1       -0.2727
     31 C          66.3104   93.0310   15.3437 C.3     1  UNL1        0.0943
     32 C          67.5874   93.3520   16.0622 C.3     1  UNL1        0.0311
     33 C          68.7270   92.8334   15.2362 C.3     1  UNL1        0.0870
     34 C          68.1544   92.1918   14.0071 C.2     1  UNL1        0.2260
     35 O          68.9377   91.5423   12.9052 O.2     1  UNL1       -0.2749
     36 C          66.0736   91.7770   11.6003 C.3     1  UNL1        0.0564
     37 C          66.4607   93.0458   10.9001 C.ar    1  UNL1       -0.0094
     38 C          65.7826   94.3357   11.2558 C.ar    1  UNL1       -0.0025
     39 C          66.1698   95.6045   10.5556 C.ar    1  UNL1        0.0111
     40 C          67.2349   95.5834    9.4996 C.ar    1  UNL1        0.0585
     41 CL         67.6220   96.8521    8.7993 Cl      1  UNL1       -0.0822
     42 C          67.9129   94.2935    9.1438 C.ar    1  UNL1        0.0225
     43 C          67.5257   93.0247    9.8441 C.ar    1  UNL1        0.0546
     44 CL         68.2037   91.7349    9.4884 Cl      1  UNL1       -0.0825
@<TRIPOS>BOND
     1    22    23    1
     2    23    21    1
     3    21    20    1
     4    20    16    1
     5    16    17    2
     6    16    18   am
     7    18    15    1
     8    15    25    1
     9    25    26    1
    10    26    27    1
    11    26    28    1
    12    15     9    1
    13     9    10   ar
    14    10    11   ar
    15    11    12   ar
    16    12    13   ar
    17    13    14   ar
    18    14     1    1
    19     1     2    1
    20     2     3    1
    21     3     4    1
    22     4     5   am
    23     5     6    2
    24     5    29    1
    25    29    36    1
    26    36    37    1
    27    37    38   ar
    28    38    39   ar
    29    39    40   ar
    30    40    41    1
    31    40    42   ar
    32    42    43   ar
    33    43    44    1
    34    29    30    1
    35    30    31    1
    36    31    32    1
    37    32    33    1
    38    33    34    1
    39    34    35    2
    40     4     7    1
    41     7     8    1
    42    14     9   ar
    43     8     1    1
    44    43    37   ar
    45    34    30   am
    46    23    24    1
    47    18    19    1
@<TRIPOS>MOLECULE
*****
 44 47 0 0 0
SMALL
GASTEIGER

@<TRIPOS>ATOM
      1 N          64.2437   90.9897   12.8594 N.pl3   1  UNL1       -0.3043
      2 C          63.2581   91.6692   11.9557 C.3     1  UNL1        0.1123
      3 C          62.3436   90.8511   11.0930 C.3     1  UNL1        0.1149
      4 N          62.4146   89.3533   11.1341 N.am    1  UNL1       -0.2747
      5 C          61.5001   88.5351   10.2714 C.2     1  UNL1        0.2442
      6 O          60.5145   89.2147    9.3676 O.2     1  UNL1       -0.2731
      7 C          63.4002   88.6737   12.0378 C.3     1  UNL1        0.1149
      8 C          64.3148   89.4919   12.9005 C.3     1  UNL1        0.1123
      9 C          65.9805   92.9051   13.1139 C.ar    1  UNL1        0.0088
     10 C          66.8949   93.7233   13.9766 C.ar    1  UNL1       -0.0015
     11 C          66.9872   93.4442   15.4475 C.ar    1  UNL1       -0.0002
     12 C          66.1649   92.3470   16.0557 C.ar    1  UNL1        0.0012
     13 C          65.2505   91.5289   15.1930 C.ar    1  UNL1        0.0143
     14 C          65.1582   91.8079   13.7221 C.ar    1  UNL1        0.0454
     15 C          65.8882   93.1841   11.6429 C.3     1  UNL1        0.0952
     16 C          65.9628   95.5521   10.5765 C.2     1  UNL1        0.2241
     17 O          67.4573   95.4637   10.4848 O.2     1  UNL1       -0.2750
     18 N          65.1782   94.4123   11.1556 N.am    1  UNL1       -0.3021
     19 H          64.1973   94.4703   11.2158 H       1  UNL1        0.1497
     20 C          65.2527   96.7803   10.0892 C.3     1  UNL1        0.1021
     21 C          64.7708   96.8548    8.6707 C.3     1  UNL1        0.0783
     22 C          65.3212   96.8367    6.1317 C.3     1  UNL1        0.0859
     23 N          65.6961   96.5004    7.5446 N.3     1  UNL1       -0.2959
     24 H          66.5825   96.9684    7.7335 H       1  UNL1        0.1233
     25 C          66.5060   92.2350   10.6593 C.3     1  UNL1        0.0242
     26 C          67.9967   92.0776   10.6038 C.3     1  UNL1        0.0020
     27 C          68.7358   92.3780    9.3335 C.3     1  UNL1        0.0001
     28 C          68.7483   91.6197   11.8184 C.3     1  UNL1        0.0001
     29 C          61.5712   87.0374   10.3125 C.3     1  UNL1        0.1564
     30 N          61.7075   86.2578    9.0383 N.am    1  UNL1       -0.2727
     31 C          62.9586   85.5995    8.5369 C.3     1  UNL1        0.0943
     32 C          62.6409   84.9344    7.2304 C.3     1  UNL1        0.0311
     33 C          61.1934   85.1816    6.9244 C.3     1  UNL1        0.0870
     34 C          60.6165   85.9995    8.0417 C.2     1  UNL1        0.2260
     35 O          59.1978   86.4755    8.1444 O.2     1  UNL1       -0.2749
     36 C          61.5061   86.3192   11.6278 C.3     1  UNL1        0.0564
     37 C          62.3416   85.0945   11.8558 C.ar    1  UNL1       -0.0094
     38 C          62.2212   83.9212   10.9289 C.ar    1  UNL1       -0.0025
     39 C          63.0567   82.6965   11.1569 C.ar    1  UNL1        0.0111
     40 C          64.0126   82.6450   12.3118 C.ar    1  UNL1        0.0585
     41 CL         64.8481   81.4203   12.5397 Cl      1  UNL1       -0.0822
     42 C          64.1330   83.8183   13.2386 C.ar    1  UNL1        0.0225
     43 C          63.2974   85.0430   13.0106 C.ar    1  UNL1        0.0546
     44 CL         63.4178   86.2162   13.9374 Cl      1  UNL1       -0.0825
@<TRIPOS>BOND
     1    22    23    1
     2    23    21    1
     3    21    20    1
     4    20    16    1
     5    16    17    2
     6    16    18   am
     7    18    15    1
     8    15    25    1
     9    25    26    1
    10    26    27    1
    11    26    28    1
    12    15     9    1
    13     9    10   ar
    14    10    11   ar
    15    11    12   ar
    16    12    13   ar
    17    13    14   ar
    18    14     1    1
    19     1     2    1
    20     2     3    1
    21     3     4    1
    22     4     5   am
    23     5     6    2
    24     5    29    1
    25    29    36    1
    26    36    37    1
    27    37    38   ar
    28    38    39   ar
    29    39    40   ar
    30    40    41    1
    31    40    42   ar
    32    42    43   ar
    33    43    44    1
    34    29    30    1
    35    30    31    1
    36    31    32    1
    37    32    33    1
    38    33    34    1
    39    34    35    2
    40     4     7    1
    41     7     8    1
    42    14     9   ar
    43     8     1    1
    44    43    37   ar
    45    34    30   am
    46    23    24    1
    47    18    19    1
@<TRIPOS>MOLECULE
*****
 44 47 0 0 0
SMALL
GASTEIGER

@<TRIPOS>ATOM
      1 N          61.5203   86.4008    9.4470 N.pl3   1  UNL1       -0.3043
      2 C          62.6748   85.7445    8.7495 C.3     1  UNL1        0.1123
      3 C          63.5372   84.7636    9.4871 C.3     1  UNL1        0.1149
      4 N          63.2452   84.4389   10.9221 N.am    1  UNL1       -0.2747
      5 C          64.1075   83.4580   11.6597 C.2     1  UNL1        0.2442
      6 O          65.2620   82.8017   10.9622 O.2     1  UNL1       -0.2731
      7 C          62.0907   85.0952   11.6196 C.3     1  UNL1        0.1149
      8 C          61.2283   86.0762   10.8820 C.3     1  UNL1        0.1123
      9 C          60.6090   88.8154    9.1479 C.ar    1  UNL1        0.0088
     10 C          59.7466   89.7963    8.4103 C.ar    1  UNL1       -0.0015
     11 C          58.9332   89.3436    7.2342 C.ar    1  UNL1       -0.0002
     12 C          58.9821   87.9100    6.7956 C.ar    1  UNL1        0.0012
     13 C          59.8445   86.9291    7.5332 C.ar    1  UNL1        0.0143
     14 C          60.6579   87.3818    8.7094 C.ar    1  UNL1        0.0454
     15 C          61.4224   89.2681   10.3241 C.3     1  UNL1        0.0952
     16 C          63.2829   90.9076   11.0991 C.2     1  UNL1        0.2241
     17 O          62.4669   91.2629   12.3065 O.2     1  UNL1       -0.2750
     18 N          62.7607   89.9101   10.1079 N.am    1  UNL1       -0.3021
     19 H          63.2963   89.6769    9.3155 H       1  UNL1        0.1497
     20 C          64.6213   91.5496   10.8829 C.3     1  UNL1        0.1021
     21 C          65.2246   92.4059   11.9566 C.3     1  UNL1        0.0783
     22 C          65.7752   91.1723   14.1758 C.3     1  UNL1        0.0859
     23 N          64.9187   92.1273   13.3984 N.3     1  UNL1       -0.2959
     24 H          64.9584   93.0223   13.8860 H       1  UNL1        0.1233
     25 C          60.8976   89.0788   11.7165 C.3     1  UNL1        0.0242
     26 C          59.5453   89.6116   12.0872 C.3     1  UNL1        0.0020
     27 C          58.6209   88.7879   12.9338 C.3     1  UNL1        0.0001
     28 C          59.1175   90.9683   11.6113 C.3     1  UNL1        0.0001
     29 C          63.8155   83.1334   13.0947 C.3     1  UNL1        0.1564
     30 N          62.7012   82.1898   13.4384 N.am    1  UNL1       -0.2727
     31 C          61.6683   82.3968   14.5062 C.3     1  UNL1        0.0943
     32 C          60.7530   81.2084   14.5024 C.3     1  UNL1        0.0311
     33 C          61.2202   80.2669   13.4322 C.3     1  UNL1        0.0870
     34 C          62.4243   80.8733   12.7746 C.2     1  UNL1        0.2260
     35 O          63.2130   80.2695   11.6507 O.2     1  UNL1       -0.2749
     36 C          64.6376   83.7523   14.1860 C.3     1  UNL1        0.0564
     37 C          64.2575   85.0920   14.7434 C.ar    1  UNL1       -0.0094
     38 C          64.6939   86.3460   14.0454 C.ar    1  UNL1       -0.0025
     39 C          64.3137   87.6857   14.6027 C.ar    1  UNL1        0.0111
     40 C          63.4972   87.7715   15.8581 C.ar    1  UNL1        0.0585
     41 CL         63.1170   89.1112   16.4155 Cl      1  UNL1       -0.0822
     42 C          63.0608   86.5175   16.5561 C.ar    1  UNL1        0.0225
     43 C          63.4409   85.1778   15.9987 C.ar    1  UNL1        0.0546
     44 CL         63.0045   83.9239   16.6967 Cl      1  UNL1       -0.0825
@<TRIPOS>BOND
     1    22    23    1
     2    23    21    1
     3    21    20    1
     4    20    16    1
     5    16    17    2
     6    16    18   am
     7    18    15    1
     8    15    25    1
     9    25    26    1
    10    26    27    1
    11    26    28    1
    12    15     9    1
    13     9    10   ar
    14    10    11   ar
    15    11    12   ar
    16    12    13   ar
    17    13    14   ar
    18    14     1    1
    19     1     2    1
    20     2     3    1
    21     3     4    1
    22     4     5   am
    23     5     6    2
    24     5    29    1
    25    29    36    1
    26    36    37    1
    27    37    38   ar
    28    38    39   ar
    29    39    40   ar
    30    40    41    1
    31    40    42   ar
    32    42    43   ar
    33    43    44    1
    34    29    30    1
    35    30    31    1
    36    31    32    1
    37    32    33    1
    38    33    34    1
    39    34    35    2
    40     4     7    1
    41     7     8    1
    42    14     9   ar
    43     8     1    1
    44    43    37   ar
    45    34    30   am
    46    23    24    1
    47    18    19    1
@<TRIPOS>MOLECULE
*****
 44 47 0 0 0
SMALL
GASTEIGER

@<TRIPOS>ATOM
      1 N          63.2753   85.6716   14.4552 N.pl3   1  UNL1       -0.3043
      2 C          62.7976   86.1343   15.7997 C.3     1  UNL1        0.1123
      3 C          63.0105   87.5577   16.2223 C.3     1  UNL1        0.1149
      4 N          63.7011   88.5185   15.3004 N.am    1  UNL1       -0.2747
      5 C          63.9140   89.9419   15.7229 C.2     1  UNL1        0.2442
      6 O          63.4363   90.4045   17.0674 O.2     1  UNL1       -0.2731
      7 C          64.1789   88.0558   13.9558 C.3     1  UNL1        0.1149
      8 C          63.9659   86.6323   13.5333 C.3     1  UNL1        0.1123
      9 C          62.6375   83.9384   12.6279 C.ar    1  UNL1        0.0088
     10 C          62.4246   82.5150   12.2054 C.ar    1  UNL1       -0.0015
     11 C          62.6366   81.4014   13.1877 C.ar    1  UNL1       -0.0002
     12 C          63.0614   81.7111   14.5925 C.ar    1  UNL1        0.0012
     13 C          63.2743   83.1345   15.0150 C.ar    1  UNL1        0.0143
     14 C          63.0624   84.2482   14.0327 C.ar    1  UNL1        0.0454
     15 C          62.4256   85.0520   11.6456 C.3     1  UNL1        0.0952
     16 C          61.1899   87.2646   11.0733 C.2     1  UNL1        0.2241
     17 O          62.3774   87.7225   10.2795 O.2     1  UNL1       -0.2750
     18 N          61.2140   85.9293   11.7563 N.am    1  UNL1       -0.3021
     19 H          60.4346   85.6288   12.2773 H       1  UNL1        0.1497
     20 C          59.9783   88.1419   11.1841 C.3     1  UNL1        0.1021
     21 C          59.9946   89.5212   10.5946 C.3     1  UNL1        0.0783
     22 C          59.7998   88.8640    8.0886 C.3     1  UNL1        0.0859
     23 N          60.3993   89.7207    9.1641 N.3     1  UNL1       -0.2959
     24 H          60.1782   90.6879    8.9277 H       1  UNL1        0.1233
     25 C          63.4252   85.2883   10.5525 C.3     1  UNL1        0.0242
     26 C          63.4774   84.3650    9.3714 C.3     1  UNL1        0.0020
     27 C          62.8855   84.7903    8.0604 C.3     1  UNL1        0.0001
     28 C          64.1214   83.0166    9.5014 C.3     1  UNL1        0.0001
     29 C          64.6047   90.9026   14.8010 C.3     1  UNL1        0.1564
     30 N          65.9079   91.5252   15.2058 N.am    1  UNL1       -0.2727
     31 C          67.2474   91.2451   14.5915 C.3     1  UNL1        0.0943
     32 C          68.2678   92.0840   15.3020 C.3     1  UNL1        0.0311
     33 C          67.5591   92.8826   16.3555 C.3     1  UNL1        0.0870
     34 C          66.1005   92.5373   16.2961 C.2     1  UNL1        0.2260
     35 O          65.0238   93.1044   17.1729 O.2     1  UNL1       -0.2749
     36 C          63.9920   91.2407   13.4741 C.3     1  UNL1        0.0564
     37 C          64.7285   92.1244   12.5115 C.ar    1  UNL1       -0.0094
     38 C          65.6626   93.1794   13.0259 C.ar    1  UNL1       -0.0025
     39 C          66.3990   94.0631   12.0632 C.ar    1  UNL1        0.0111
     40 C          66.2013   93.8918   10.5861 C.ar    1  UNL1        0.0585
     41 CL         66.9377   94.7756    9.6234 Cl      1  UNL1       -0.0822
     42 C          65.2672   92.8369   10.0718 C.ar    1  UNL1        0.0225
     43 C          64.5307   91.9532   11.0345 C.ar    1  UNL1        0.0546
     44 CL         63.5966   90.8983   10.5202 Cl      1  UNL1       -0.0825
@<TRIPOS>BOND
     1    22    23    1
     2    23    21    1
     3    21    20    1
     4    20    16    1
     5    16    17    2
     6    16    18   am
     7    18    15    1
     8    15    25    1
     9    25    26    1
    10    26    27    1
    11    26    28    1
    12    15     9    1
    13     9    10   ar
    14    10    11   ar
    15    11    12   ar
    16    12    13   ar
    17    13    14   ar
    18    14     1    1
    19     1     2    1
    20     2     3    1
    21     3     4    1
    22     4     5   am
    23     5     6    2
    24     5    29    1
    25    29    36    1
    26    36    37    1
    27    37    38   ar
    28    38    39   ar
    29    39    40   ar
    30    40    41    1
    31    40    42   ar
    32    42    43   ar
    33    43    44    1
    34    29    30    1
    35    30    31    1
    36    31    32    1
    37    32    33    1
    38    33    34    1
    39    34    35    2
    40     4     7    1
    41     7     8    1
    42    14     9   ar
    43     8     1    1
    44    43    37   ar
    45    34    30   am
    46    23    24    1
    47    18    19    1
@<TRIPOS>MOLECULE
*****
 44 47 0 0 0
SMALL
GASTEIGER

@<TRIPOS>ATOM
      1 N          61.7220   89.3287    9.9943 N.pl3   1  UNL1       -0.3043
      2 C          62.5080   90.4335    9.3527 C.3     1  UNL1        0.1123
      3 C          63.4706   91.2421   10.1709 C.3     1  UNL1        0.1149
      4 N          63.6473   90.9459   11.6308 N.am    1  UNL1       -0.2747
      5 C          64.6098   91.7545   12.4490 C.2     1  UNL1        0.2442
      6 O          65.3958   92.8594   11.8074 O.2     1  UNL1       -0.2731
      7 C          62.8613   89.8411   12.2724 C.3     1  UNL1        0.1149
      8 C          61.8987   89.0324   11.4541 C.3     1  UNL1        0.1123
      9 C          60.7949   87.0219    9.2398 C.ar    1  UNL1        0.0088
     10 C          59.8323   86.2133    8.4215 C.ar    1  UNL1       -0.0015
     11 C          58.8342   86.9030    7.5395 C.ar    1  UNL1       -0.0002
     12 C          58.7986   88.4011    7.4757 C.ar    1  UNL1        0.0012
     13 C          59.7612   89.2097    8.2939 C.ar    1  UNL1        0.0143
     14 C          60.7594   88.5200    9.1760 C.ar    1  UNL1        0.0454
     15 C          61.7931   86.3322   10.1219 C.3     1  UNL1        0.0952
     16 C          62.3284   85.0932   12.3419 C.2     1  UNL1        0.2241
     17 O          63.5886   84.5510   11.7354 O.2     1  UNL1       -0.2750
     18 N          61.4306   85.9838   11.5351 N.am    1  UNL1       -0.3021
     19 H          60.6035   86.3397   11.9331 H       1  UNL1        0.1497
     20 C          61.9658   84.7448   13.7551 C.3     1  UNL1        0.1021
     21 C          62.2864   83.3837   14.2979 C.3     1  UNL1        0.0783
     22 C          61.5406   80.9355   13.8508 C.3     1  UNL1        0.0859
     23 N          62.2342   82.1856   13.3969 N.3     1  UNL1       -0.2959
     24 H          61.7722   82.4833   12.5377 H       1  UNL1        0.1233
     25 C          63.1537   85.9909    9.5908 C.3     1  UNL1        0.0242
     26 C          63.3372   84.7853    8.7173 C.3     1  UNL1        0.0020
     27 C          63.9609   83.5414    9.2774 C.3     1  UNL1        0.0001
     28 C          62.8970   84.8236    7.2839 C.3     1  UNL1        0.0001
     29 C          64.7865   91.4583   13.9088 C.3     1  UNL1        0.1564
     30 N          66.0732   91.8096   14.5950 N.am    1  UNL1       -0.2727
     31 C          67.4513   91.6279   14.0313 C.3     1  UNL1        0.0943
     32 C          68.4376   92.1102   15.0533 C.3     1  UNL1        0.0311
     33 C          67.6690   92.5900   16.2488 C.3     1  UNL1        0.0870
     34 C          66.2077   92.4042   15.9656 C.2     1  UNL1        0.2260
     35 O          65.0793   92.7520   16.8904 O.2     1  UNL1       -0.2749
     36 C          63.6764   90.8108   14.6824 C.3     1  UNL1        0.0564
     37 C          63.8012   89.3812   15.1192 C.ar    1  UNL1       -0.0094
     38 C          64.5194   88.3915   14.2504 C.ar    1  UNL1       -0.0025
     39 C          64.6443   86.9620   14.6872 C.ar    1  UNL1        0.0111
     40 C          64.0510   86.5221   15.9929 C.ar    1  UNL1        0.0585
     41 CL         64.1758   85.0926   16.4297 Cl      1  UNL1       -0.0822
     42 C          63.3328   87.5118   16.8616 C.ar    1  UNL1        0.0225
     43 C          63.2080   88.9414   16.4248 C.ar    1  UNL1        0.0546
     44 CL         62.4898   89.9311   17.2935 Cl      1  UNL1       -0.0825
@<TRIPOS>BOND
     1    22    23    1
     2    23    21    1
     3    21    20    1
     4    20    16    1
     5    16    17    2
     6    16    18   am
     7    18    15    1
     8    15    25    1
     9    25    26    1
    10    26    27    1
    11    26    28    1
    12    15     9    1
    13     9    10   ar
    14    10    11   ar
    15    11    12   ar
    16    12    13   ar
    17    13    14   ar
    18    14     1    1
    19     1     2    1
    20     2     3    1
    21     3     4    1
    22     4     5   am
    23     5     6    2
    24     5    29    1
    25    29    36    1
    26    36    37    1
    27    37    38   ar
    28    38    39   ar
    29    39    40   ar
    30    40    41    1
    31    40    42   ar
    32    42    43   ar
    33    43    44    1
    34    29    30    1
    35    30    31    1
    36    31    32    1
    37    32    33    1
    38    33    34    1
    39    34    35    2
    40     4     7    1
    41     7     8    1
    42    14     9   ar
    43     8     1    1
    44    43    37   ar
    45    34    30   am
    46    23    24    1
    47    18    19    1
@<TRIPOS>MOLECULE
*****
 44 47 0 0 0
SMALL
GASTEIGER

@<TRIPOS>ATOM
      1 N          61.8067   89.0774   10.2793 N.pl3   1  UNL1       -0.3043
      2 C          62.1320   90.5234   10.0485 C.3     1  UNL1        0.1123
      3 C          63.0616   91.2413   10.9815 C.3     1  UNL1        0.1149
      4 N          63.6659   90.5131   12.1454 N.am    1  UNL1       -0.2747
      5 C          64.5955   91.2310   13.0784 C.2     1  UNL1        0.2442
      6 O          64.9208   92.6770   12.8476 O.2     1  UNL1       -0.2731
      7 C          63.3407   89.0671   12.3763 C.3     1  UNL1        0.1149
      8 C          62.4111   88.3493   11.4432 C.3     1  UNL1        0.1123
      9 C          60.8992   86.8617    9.2709 C.ar    1  UNL1        0.0088
     10 C          59.9696   86.1439    8.3379 C.ar    1  UNL1       -0.0015
     11 C          59.0179   86.9240    7.4802 C.ar    1  UNL1       -0.0002
     12 C          58.9958   88.4220    7.5555 C.ar    1  UNL1        0.0012
     13 C          59.9254   89.1397    8.4886 C.ar    1  UNL1        0.0143
     14 C          60.8771   88.3596    9.3463 C.ar    1  UNL1        0.0454
     15 C          61.8509   86.0815   10.1286 C.3     1  UNL1        0.0952
     16 C          62.4502   85.0148   12.4205 C.2     1  UNL1        0.2241
     17 O          63.8346   84.7226   11.9226 O.2     1  UNL1       -0.2750
     18 N          61.4584   85.6942   11.5236 N.am    1  UNL1       -0.3021
     19 H          60.5497   85.8860   11.8504 H       1  UNL1        0.1497
     20 C          62.0576   84.6275   13.8155 C.3     1  UNL1        0.1021
     21 C          62.3544   83.2472   14.3223 C.3     1  UNL1        0.0783
     22 C          63.8082   81.3466   13.3103 C.3     1  UNL1        0.0859
     23 N          62.5192   82.1125   13.3553 N.3     1  UNL1       -0.2959
     24 H          61.7831   81.4381   13.5644 H       1  UNL1        0.1233
     25 C          63.1951   85.6887    9.5914 C.3     1  UNL1        0.0242
     26 C          63.3327   84.4629    8.7378 C.3     1  UNL1        0.0020
     27 C          63.8811   83.1968    9.3263 C.3     1  UNL1        0.0001
     28 C          62.9218   84.5032    7.2958 C.3     1  UNL1        0.0001
     29 C          65.1998   90.5029   14.2423 C.3     1  UNL1        0.1564
     30 N          64.3131   89.8618   15.2683 N.am    1  UNL1       -0.2727
     31 C          64.0535   88.3917   15.4145 C.3     1  UNL1        0.0943
     32 C          63.1102   88.1996   16.5648 C.3     1  UNL1        0.0311
     33 C          62.7867   89.5511   17.1296 C.3     1  UNL1        0.0870
     34 C          63.5301   90.5784   16.3283 C.2     1  UNL1        0.2260
     35 O          63.4965   92.0617   16.5484 O.2     1  UNL1       -0.2749
     36 C          66.6910   90.4157   14.3801 C.3     1  UNL1        0.0564
     37 C          67.4694   91.6006   14.8701 C.ar    1  UNL1       -0.0094
     38 C          67.0562   92.3001   16.1311 C.ar    1  UNL1       -0.0025
     39 C          67.8346   93.4850   16.6210 C.ar    1  UNL1        0.0111
     40 C          69.0262   93.9705   15.8500 C.ar    1  UNL1        0.0585
     41 CL         69.8046   95.1554   16.3399 Cl      1  UNL1       -0.0822
     42 C          69.4393   93.2710   14.5890 C.ar    1  UNL1        0.0225
     43 C          68.6609   92.0861   14.0991 C.ar    1  UNL1        0.0546
     44 CL         69.0741   91.3866   12.8381 Cl      1  UNL1       -0.0825
@<TRIPOS>BOND
     1    22    23    1
     2    23    21    1
     3    21    20    1
     4    20    16    1
     5    16    17    2
     6    16    18   am
     7    18    15    1
     8    15    25    1
     9    25    26    1
    10    26    27    1
    11    26    28    1
    12    15     9    1
    13     9    10   ar
    14    10    11   ar
    15    11    12   ar
    16    12    13   ar
    17    13    14   ar
    18    14     1    1
    19     1     2    1
    20     2     3    1
    21     3     4    1
    22     4     5   am
    23     5     6    2
    24     5    29    1
    25    29    36    1
    26    36    37    1
    27    37    38   ar
    28    38    39   ar
    29    39    40   ar
    30    40    41    1
    31    40    42   ar
    32    42    43   ar
    33    43    44    1
    34    29    30    1
    35    30    31    1
    36    31    32    1
    37    32    33    1
    38    33    34    1
    39    34    35    2
    40     4     7    1
    41     7     8    1
    42    14     9   ar
    43     8     1    1
    44    43    37   ar
    45    34    30   am
    46    23    24    1
    47    18    19    1
