@<TRIPOS>MOLECULE
*****
 38 42 0 0 0
SMALL
GASTEIGER

@<TRIPOS>ATOM
      1 C          66.4719   92.7612   11.2988 C.ar    1  UNL1       -0.0078
      2 C          66.9876   92.7042   12.7062 C.ar    1  UNL1       -0.0030
      3 C          66.2343   91.9346   13.7503 C.ar    1  UNL1       -0.0003
      4 C          64.9654   91.2219   13.3870 C.ar    1  UNL1        0.0001
      5 C          64.2121   90.4523   14.4312 C.ar    1  UNL1        0.0031
      6 C          62.9431   89.7397   14.0679 C.ar    1  UNL1        0.0368
      7 C          62.4275   89.7967   12.6604 C.ar    1  UNL1        0.1422
      8 C          63.1808   90.5663   11.6163 C.ar    1  UNL1        0.1053
      9 C          64.4497   91.2789   11.9796 C.ar    1  UNL1        0.0066
     10 C          65.2030   92.0485   10.9355 C.ar    1  UNL1       -0.0029
     11 C          62.6651   90.6233   10.2089 C.3     1  UNL1        0.4214
     12 F          62.1495   90.6802    8.8014 F       1  UNL1       -0.1657
     13 F          61.6122   91.6031   10.6344 F       1  UNL1       -0.1657
     14 F          63.7181   89.6434    9.7834 F       1  UNL1       -0.1657
     15 C          68.5723   93.0545    9.7979 C.3     1  UNL1        0.0222
     16 C          67.2252   93.5308   10.2546 C.3     1  UNL1        0.0801
     17 N          66.6314   94.7767    9.6671 N.3     1  UNL1       -0.2729
     18 C          65.7722   95.7702   10.3914 C.3     1  UNL1        0.0581
     19 C          65.4023   96.8554    9.4241 C.3     1  UNL1        0.0174
     20 C          66.0329   96.5325    8.1019 C.3     1  UNL1        0.0174
     21 C          66.7925   95.2478    8.2521 C.3     1  UNL1        0.0581
     22 C          67.4582   93.9651    8.6889 C.3     1  UNL1        0.0215
     23 C          67.2090   93.6218   10.1276 C.3     1  UNL1        0.0392
     24 C          66.3660   94.5243   10.9789 C.3     1  UNL1        0.0215
     25 C          67.8029   92.3759   10.7151 C.2     1  UNL1        0.0501
     26 O          68.4653   92.0531   12.0217 O.co2   1  UNL1       -0.5492
     27 O          67.7990   91.0995    9.9272 O.co2   1  UNL1       -0.5492
     28 O          61.1586   89.0841   12.2971 O.3     1  UNL1       -0.4792
     29 C          61.1224   88.1794   11.1011 C.3     1  UNL1        0.1659
     30 C          60.0986   88.3971   10.0267 C.3     1  UNL1        0.0438
     31 C          60.0625   87.4925    8.8307 C.3     1  UNL1        0.0122
     32 C          61.0503   86.3702    8.7091 C.3     1  UNL1        0.0954
     33 C          62.0742   86.1525    9.7835 C.3     1  UNL1        0.0122
     34 C          62.1102   87.0572   10.9795 C.3     1  UNL1        0.0438
     35 C          61.0142   85.4656    7.5132 C.3     1  UNL1        0.3975
     36 F          60.9781   84.5610    6.3172 F       1  UNL1       -0.1701
     37 F          59.5285   85.6494    7.4189 F       1  UNL1       -0.1701
     38 F          62.4999   85.2818    7.6074 F       1  UNL1       -0.1701
@<TRIPOS>UNITY_ATOM_ATTR
26 1
charge -1
@<TRIPOS>BOND
     1    16    15    1
     2    16     1    1
     3     1     2   ar
     4     2     3   ar
     5     3     4   ar
     6     4     5   ar
     7     5     6   ar
     8     6     7   ar
     9     7    28    1
    10    29    28    1
    11    29    30    1
    12    30    31    1
    13    31    32    1
    14    32    35    1
    15    35    36    1
    16    35    37    1
    17    35    38    1
    18    32    33    1
    19    33    34    1
    20     7     8   ar
    21     8    11    1
    22    11    12    1
    23    11    13    1
    24    11    14    1
    25     8     9   ar
    26     9    10   ar
    27    16    17    1
    28    17    18    1
    29    18    19    1
    30    19    20    1
    31    20    21    1
    32    21    22    1
    33    22    23    1
    34    23    25    1
    35    25    26   ar
    36    25    27   ar
    37    23    24    1
    38    10     1   ar
    39    21    17    1
    40     9     4   ar
    41    24    18    1
    42    34    29    1
@<TRIPOS>MOLECULE
*****
 38 42 0 0 0
SMALL
GASTEIGER

@<TRIPOS>ATOM
      1 C          63.4531   83.6427   12.6636 C.ar    1  UNL1       -0.0078
      2 C          64.3419   83.6190   13.8716 C.ar    1  UNL1       -0.0030
      3 C          64.7291   84.9032   14.5431 C.ar    1  UNL1       -0.0003
      4 C          64.2274   86.2110   14.0066 C.ar    1  UNL1        0.0001
      5 C          64.6146   87.4953   14.6782 C.ar    1  UNL1        0.0031
      6 C          64.1129   88.8031   14.1417 C.ar    1  UNL1        0.0368
      7 C          63.2241   88.8267   12.9336 C.ar    1  UNL1        0.1422
      8 C          62.8369   87.5426   12.2621 C.ar    1  UNL1        0.1053
      9 C          63.3386   86.2347   12.7986 C.ar    1  UNL1        0.0066
     10 C          62.9514   84.9506   12.1271 C.ar    1  UNL1       -0.0029
     11 C          61.9481   87.5663   11.0540 C.3     1  UNL1        0.4214
     12 F          61.0593   87.5900    9.8459 F       1  UNL1       -0.1657
     13 F          60.8552   86.9109   11.8453 F       1  UNL1       -0.1657
     14 F          63.0409   88.2217   10.2628 F       1  UNL1       -0.1657
     15 C          63.3998   82.1377   10.5464 C.3     1  UNL1        0.0222
     16 C          63.0659   82.3585   11.9920 C.3     1  UNL1        0.0801
     17 N          62.3448   81.2951   12.7661 N.3     1  UNL1       -0.2729
     18 C          61.2408   81.5208   13.7562 C.3     1  UNL1        0.0581
     19 C          60.8147   80.1845   14.2880 C.3     1  UNL1        0.0174
     20 C          61.6554   79.1329   13.6265 C.3     1  UNL1        0.0174
     21 C          62.6010   79.8193   12.6859 C.3     1  UNL1        0.0581
     22 C          63.4179   80.7628   11.8365 C.3     1  UNL1        0.0215
     23 C          63.0505   82.2052   12.0223 C.3     1  UNL1        0.0392
     24 C          61.9620   82.5842   12.9821 C.3     1  UNL1        0.0215
     25 C          63.7716   83.2686   11.2482 C.2     1  UNL1        0.0501
     26 O          63.3452   84.2930   10.2388 O.co2   1  UNL1       -0.5492
     27 O          65.2488   83.4564   11.4290 O.co2   1  UNL1       -0.5492
     28 O          62.7224   90.1346   12.3971 O.3     1  UNL1       -0.4792
     29 C          63.6958   91.1899   11.9624 C.3     1  UNL1        0.1659
     30 C          63.7387   91.6256   10.5278 C.3     1  UNL1        0.0438
     31 C          64.7122   92.6809   10.0932 C.3     1  UNL1        0.0122
     32 C          65.6427   93.3004   11.0933 C.3     1  UNL1        0.0954
     33 C          65.5998   92.8647   12.5280 C.3     1  UNL1        0.0122
     34 C          64.6264   91.8095   12.9626 C.3     1  UNL1        0.0438
     35 C          66.6161   94.3557   10.6587 C.3     1  UNL1        0.3975
     36 F          67.5895   95.4109   10.2242 F       1  UNL1       -0.1701
     37 F          66.2726   95.1713   11.8698 F       1  UNL1       -0.1701
     38 F          66.9597   93.5400    9.4477 F       1  UNL1       -0.1701
@<TRIPOS>UNITY_ATOM_ATTR
26 1
charge -1
@<TRIPOS>BOND
     1    16    15    1
     2    16     1    1
     3     1     2   ar
     4     2     3   ar
     5     3     4   ar
     6     4     5   ar
     7     5     6   ar
     8     6     7   ar
     9     7    28    1
    10    29    28    1
    11    29    30    1
    12    30    31    1
    13    31    32    1
    14    32    35    1
    15    35    36    1
    16    35    37    1
    17    35    38    1
    18    32    33    1
    19    33    34    1
    20     7     8   ar
    21     8    11    1
    22    11    12    1
    23    11    13    1
    24    11    14    1
    25     8     9   ar
    26     9    10   ar
    27    16    17    1
    28    17    18    1
    29    18    19    1
    30    19    20    1
    31    20    21    1
    32    21    22    1
    33    22    23    1
    34    23    25    1
    35    25    26   ar
    36    25    27   ar
    37    23    24    1
    38    10     1   ar
    39    21    17    1
    40     9     4   ar
    41    24    18    1
    42    34    29    1
@<TRIPOS>MOLECULE
*****
 38 42 0 0 0
SMALL
GASTEIGER

@<TRIPOS>ATOM
      1 C          65.9009   91.9522   13.1405 C.ar    1  UNL1       -0.0078
      2 C          66.4503   91.1633   14.2920 C.ar    1  UNL1       -0.0030
      3 C          65.8166   89.8598   14.6782 C.ar    1  UNL1       -0.0003
      4 C          64.6336   89.3451   13.9129 C.ar    1  UNL1        0.0001
      5 C          63.9999   88.0415   14.2992 C.ar    1  UNL1        0.0031
      6 C          62.8169   87.5269   13.5339 C.ar    1  UNL1        0.0368
      7 C          62.2676   88.3158   12.3824 C.ar    1  UNL1        0.1422
      8 C          62.9012   89.6194   11.9963 C.ar    1  UNL1        0.1053
      9 C          64.0842   90.1340   12.7615 C.ar    1  UNL1        0.0066
     10 C          64.7179   91.4376   12.3753 C.ar    1  UNL1       -0.0029
     11 C          62.3519   90.4083   10.8448 C.3     1  UNL1        0.4214
     12 F          61.8025   91.1972    9.6934 F       1  UNL1       -0.1657
     13 F          63.2527   89.6635    9.9048 F       1  UNL1       -0.1657
     14 F          61.4510   91.1530   11.7849 F       1  UNL1       -0.1657
     15 C          66.7669   94.3135   13.7923 C.3     1  UNL1        0.0222
     16 C          66.5346   93.2559   12.7543 C.3     1  UNL1        0.0801
     17 N          66.9360   93.5018   11.3301 N.3     1  UNL1       -0.2729
     18 C          67.8106   92.6145   10.4947 C.3     1  UNL1        0.0581
     19 C          67.9484   93.2425    9.1395 C.3     1  UNL1        0.0174
     20 C          67.1588   94.5179    9.1372 C.3     1  UNL1        0.0174
     21 C          66.5332   94.6781   10.4911 C.3     1  UNL1        0.0581
     22 C          66.0418   94.5776   11.9150 C.3     1  UNL1        0.0215
     23 C          66.5249   93.3501   12.6291 C.3     1  UNL1        0.0392
     24 C          67.4093   92.3686   11.9190 C.3     1  UNL1        0.0215
     25 C          66.1235   93.1042   14.0534 C.2     1  UNL1        0.0501
     26 O          64.8412   92.7026   14.7202 O.co2   1  UNL1       -0.5492
     27 O          67.1308   93.2592   15.1539 O.co2   1  UNL1       -0.5492
     28 O          61.0845   87.8012   11.6172 O.3     1  UNL1       -0.4792
     29 C          61.2906   87.0301   10.3471 C.3     1  UNL1        0.1659
     30 C          62.5347   86.2136   10.1589 C.3     1  UNL1        0.0438
     31 C          62.7407   85.4425    8.8887 C.3     1  UNL1        0.0122
     32 C          61.7026   85.4881    7.8069 C.3     1  UNL1        0.0954
     33 C          60.4585   86.3047    7.9952 C.3     1  UNL1        0.0122
     34 C          60.2525   87.0757    9.2653 C.3     1  UNL1        0.0438
     35 C          61.9086   84.7171    6.5369 C.3     1  UNL1        0.3975
     36 F          62.1146   83.9461    5.2668 F       1  UNL1       -0.1701
     37 F          60.4235   84.5747    6.3824 F       1  UNL1       -0.1701
     38 F          63.3938   84.8594    6.6914 F       1  UNL1       -0.1701
@<TRIPOS>UNITY_ATOM_ATTR
26 1
charge -1
@<TRIPOS>BOND
     1    16    15    1
     2    16     1    1
     3     1     2   ar
     4     2     3   ar
     5     3     4   ar
     6     4     5   ar
     7     5     6   ar
     8     6     7   ar
     9     7    28    1
    10    29    28    1
    11    29    30    1
    12    30    31    1
    13    31    32    1
    14    32    35    1
    15    35    36    1
    16    35    37    1
    17    35    38    1
    18    32    33    1
    19    33    34    1
    20     7     8   ar
    21     8    11    1
    22    11    12    1
    23    11    13    1
    24    11    14    1
    25     8     9   ar
    26     9    10   ar
    27    16    17    1
    28    17    18    1
    29    18    19    1
    30    19    20    1
    31    20    21    1
    32    21    22    1
    33    22    23    1
    34    23    25    1
    35    25    26   ar
    36    25    27   ar
    37    23    24    1
    38    10     1   ar
    39    21    17    1
    40     9     4   ar
    41    24    18    1
    42    34    29    1
@<TRIPOS>MOLECULE
*****
 38 42 0 0 0
SMALL
GASTEIGER

@<TRIPOS>ATOM
      1 C          63.2294   84.7545   13.2867 C.ar    1  UNL1       -0.0078
      2 C          62.8197   84.5282   11.8616 C.ar    1  UNL1       -0.0030
      3 C          62.5839   85.6990   10.9541 C.ar    1  UNL1       -0.0003
      4 C          62.7577   87.0961   11.4718 C.ar    1  UNL1        0.0001
      5 C          62.5218   88.2670   10.5642 C.ar    1  UNL1        0.0031
      6 C          62.6956   89.6640   11.0819 C.ar    1  UNL1        0.0368
      7 C          63.1053   89.8903   12.5071 C.ar    1  UNL1        0.1422
      8 C          63.3411   88.7195   13.4145 C.ar    1  UNL1        0.1053
      9 C          63.1673   87.3224   12.8969 C.ar    1  UNL1        0.0066
     10 C          63.4031   86.1516   13.8044 C.ar    1  UNL1       -0.0029
     11 C          63.7507   88.9457   14.8397 C.3     1  UNL1        0.4214
     12 F          64.1604   89.1720   16.2648 F       1  UNL1       -0.1657
     13 F          62.3691   89.4345   15.1592 F       1  UNL1       -0.1657
     14 F          65.1323   88.4570   14.5201 F       1  UNL1       -0.1657
     15 C          64.3466   83.7338   15.3986 C.3     1  UNL1        0.0222
     16 C          63.4652   83.5836   14.1942 C.3     1  UNL1        0.0801
     17 N          62.8196   82.2626   13.8973 N.3     1  UNL1       -0.2729
     18 C          61.4506   81.8324   14.3339 C.3     1  UNL1        0.0581
     19 C          61.2146   80.4437   13.8181 C.3     1  UNL1        0.0174
     20 C          62.4378   80.0157   13.0628 C.3     1  UNL1        0.0174
     21 C          63.4297   81.1399   13.1118 C.3     1  UNL1        0.0581
     22 C          64.2148   82.4121   13.3225 C.3     1  UNL1        0.0215
     23 C          63.4783   83.4432   14.1251 C.3     1  UNL1        0.0392
     24 C          62.0962   83.1534   14.6308 C.3     1  UNL1        0.0215
     25 C          64.1238   84.7643   14.4220 C.2     1  UNL1        0.0501
     26 O          65.3300   85.4782   13.8876 O.co2   1  UNL1       -0.5492
     27 O          63.5345   85.6701   15.4622 O.co2   1  UNL1       -0.5492
     28 O          63.2790   91.2874   13.0247 O.3     1  UNL1       -0.4792
     29 C          64.6045   91.7238   13.5750 C.3     1  UNL1        0.1659
     30 C          65.7754   91.9053   12.6552 C.3     1  UNL1        0.0438
     31 C          67.1008   92.3418   13.2055 C.3     1  UNL1        0.0122
     32 C          67.2553   92.5968   14.6756 C.3     1  UNL1        0.0954
     33 C          66.0843   92.4153   15.5954 C.3     1  UNL1        0.0122
     34 C          64.7590   91.9788   15.0451 C.3     1  UNL1        0.0438
     35 C          68.5807   93.0333   15.2259 C.3     1  UNL1        0.3975
     36 F          69.9060   93.4697   15.7762 F       1  UNL1       -0.1701
     37 F          69.2826   92.2509   14.1558 F       1  UNL1       -0.1701
     38 F          67.8787   93.8156   16.2960 F       1  UNL1       -0.1701
@<TRIPOS>UNITY_ATOM_ATTR
26 1
charge -1
@<TRIPOS>BOND
     1    16    15    1
     2    16     1    1
     3     1     2   ar
     4     2     3   ar
     5     3     4   ar
     6     4     5   ar
     7     5     6   ar
     8     6     7   ar
     9     7    28    1
    10    29    28    1
    11    29    30    1
    12    30    31    1
    13    31    32    1
    14    32    35    1
    15    35    36    1
    16    35    37    1
    17    35    38    1
    18    32    33    1
    19    33    34    1
    20     7     8   ar
    21     8    11    1
    22    11    12    1
    23    11    13    1
    24    11    14    1
    25     8     9   ar
    26     9    10   ar
    27    16    17    1
    28    17    18    1
    29    18    19    1
    30    19    20    1
    31    20    21    1
    32    21    22    1
    33    22    23    1
    34    23    25    1
    35    25    26   ar
    36    25    27   ar
    37    23    24    1
    38    10     1   ar
    39    21    17    1
    40     9     4   ar
    41    24    18    1
    42    34    29    1
@<TRIPOS>MOLECULE
*****
 38 42 0 0 0
SMALL
GASTEIGER

@<TRIPOS>ATOM
      1 C          61.6134   87.0286   10.0064 C.ar    1  UNL1       -0.0078
      2 C          61.8950   85.9628   11.0236 C.ar    1  UNL1       -0.0030
      3 C          62.6489   86.3013   12.2754 C.ar    1  UNL1       -0.0003
      4 C          63.1210   87.7056   12.5101 C.ar    1  UNL1        0.0001
      5 C          63.8749   88.0440   13.7620 C.ar    1  UNL1        0.0031
      6 C          64.3470   89.4483   13.9967 C.ar    1  UNL1        0.0368
      7 C          64.0653   90.5142   12.9794 C.ar    1  UNL1        0.1422
      8 C          63.3114   90.1757   11.7276 C.ar    1  UNL1        0.1053
      9 C          62.8393   88.7714   11.4929 C.ar    1  UNL1        0.0066
     10 C          62.0855   88.4329   10.2411 C.ar    1  UNL1       -0.0029
     11 C          63.0298   91.2415   10.7104 C.3     1  UNL1        0.4214
     12 F          62.7481   92.3074    9.6932 F       1  UNL1       -0.1657
     13 F          61.5803   91.2263   11.0959 F       1  UNL1       -0.1657
     14 F          64.4793   91.2567   10.3249 F       1  UNL1       -0.1657
     15 C          59.5278   87.3260    8.4859 C.3     1  UNL1        0.0222
     16 C          60.8595   86.6902    8.7545 C.3     1  UNL1        0.0801
     17 N          61.4375   85.7159    7.7712 N.3     1  UNL1       -0.2729
     18 C          62.8773   85.3055    7.6791 C.3     1  UNL1        0.0581
     19 C          63.0068   84.3170    6.5584 C.3     1  UNL1        0.0174
     20 C          61.6470   84.1164    5.9578 C.3     1  UNL1        0.0174
     21 C          60.6771   84.9810    6.7074 C.3     1  UNL1        0.0581
     22 C          59.9441   85.9324    7.6222 C.3     1  UNL1        0.0215
     23 C          60.8327   86.5932    8.6339 C.3     1  UNL1        0.0392
     24 C          62.2993   86.2798    8.6624 C.3     1  UNL1        0.0215
     25 C          60.2548   87.5675    9.6172 C.2     1  UNL1        0.0501
     26 O          59.7736   87.4569   11.0336 O.co2   1  UNL1       -0.5492
     27 O          60.0617   89.0026    9.2259 O.co2   1  UNL1       -0.5492
     28 O          64.5374   91.9185   13.2141 O.3     1  UNL1       -0.4792
     29 C          65.7803   92.1677   14.0161 C.3     1  UNL1        0.1659
     30 C          65.6776   92.4945   15.4765 C.3     1  UNL1        0.0438
     31 C          66.9205   92.7437   16.2785 C.3     1  UNL1        0.0122
     32 C          68.2660   92.6661   15.6201 C.3     1  UNL1        0.0954
     33 C          68.3687   92.3392   14.1597 C.3     1  UNL1        0.0122
     34 C          67.1258   92.0900   13.3578 C.3     1  UNL1        0.0438
     35 C          69.5089   92.9153   16.4221 C.3     1  UNL1        0.3975
     36 F          70.7517   93.1645   17.2240 F       1  UNL1       -0.1701
     37 F          69.2979   91.6215   17.1511 F       1  UNL1       -0.1701
     38 F          69.7199   94.2090   15.6930 F       1  UNL1       -0.1701
@<TRIPOS>UNITY_ATOM_ATTR
26 1
charge -1
@<TRIPOS>BOND
     1    16    15    1
     2    16     1    1
     3     1     2   ar
     4     2     3   ar
     5     3     4   ar
     6     4     5   ar
     7     5     6   ar
     8     6     7   ar
     9     7    28    1
    10    29    28    1
    11    29    30    1
    12    30    31    1
    13    31    32    1
    14    32    35    1
    15    35    36    1
    16    35    37    1
    17    35    38    1
    18    32    33    1
    19    33    34    1
    20     7     8   ar
    21     8    11    1
    22    11    12    1
    23    11    13    1
    24    11    14    1
    25     8     9   ar
    26     9    10   ar
    27    16    17    1
    28    17    18    1
    29    18    19    1
    30    19    20    1
    31    20    21    1
    32    21    22    1
    33    22    23    1
    34    23    25    1
    35    25    26   ar
    36    25    27   ar
    37    23    24    1
    38    10     1   ar
    39    21    17    1
    40     9     4   ar
    41    24    18    1
    42    34    29    1
@<TRIPOS>MOLECULE
*****
 38 42 0 0 0
SMALL
GASTEIGER

@<TRIPOS>ATOM
      1 C          63.1922   84.3586   13.2190 C.ar    1  UNL1       -0.0078
      2 C          62.7393   84.1301   11.8074 C.ar    1  UNL1       -0.0030
      3 C          62.4962   85.2989   10.8993 C.ar    1  UNL1       -0.0003
      4 C          62.7061   86.6962   11.4027 C.ar    1  UNL1        0.0001
      5 C          62.4631   87.8651   10.4945 C.ar    1  UNL1        0.0031
      6 C          62.6730   89.2624   10.9979 C.ar    1  UNL1        0.0368
      7 C          63.1259   89.4909   12.4096 C.ar    1  UNL1        0.1422
      8 C          63.3690   88.3220   13.3177 C.ar    1  UNL1        0.1053
      9 C          63.1591   86.9247   12.8143 C.ar    1  UNL1        0.0066
     10 C          63.4021   85.7559   13.7224 C.ar    1  UNL1       -0.0029
     11 C          63.8219   88.5505   14.7293 C.3     1  UNL1        0.4214
     12 F          64.2749   88.7790   16.1409 F       1  UNL1       -0.1657
     13 F          62.5339   89.2589   15.0279 F       1  UNL1       -0.1657
     14 F          65.1099   87.8422   14.4307 F       1  UNL1       -0.1657
     15 C          64.4490   83.2933   15.2279 C.3     1  UNL1        0.0222
     16 C          63.4352   83.1897   14.1272 C.3     1  UNL1        0.0801
     17 N          62.6645   81.9174   13.9347 N.3     1  UNL1       -0.2729
     18 C          61.2632   81.6561   14.4017 C.3     1  UNL1        0.0581
     19 C          60.8924   80.2602   13.9970 C.3     1  UNL1        0.0174
     20 C          62.0645   79.6587   13.2798 C.3     1  UNL1        0.0174
     21 C          63.1597   80.6829   13.2413 C.3     1  UNL1        0.0581
     22 C          64.0640   81.8867   13.3520 C.3     1  UNL1        0.0215
     23 C          63.4344   83.0437   14.0694 C.3     1  UNL1        0.0392
     24 C          62.0340   82.9285   14.5943 C.3     1  UNL1        0.0215
     25 C          64.2051   84.3161   14.2619 C.2     1  UNL1        0.0501
     26 O          65.2932   85.0023   13.4903 O.co2   1  UNL1       -0.5492
     27 O          63.9252   85.1903   15.4482 O.co2   1  UNL1       -0.5492
     28 O          63.3359   90.8882   12.9130 O.3     1  UNL1       -0.4792
     29 C          64.3045   91.7983   12.2177 C.3     1  UNL1        0.1659
     30 C          65.4411   92.4091   12.9825 C.3     1  UNL1        0.0438
     31 C          66.4097   93.3193   12.2871 C.3     1  UNL1        0.0122
     32 C          66.2417   93.6185   10.8269 C.3     1  UNL1        0.0954
     33 C          65.1051   93.0076   10.0621 C.3     1  UNL1        0.0122
     34 C          64.1365   92.0975   10.7574 C.3     1  UNL1        0.0438
     35 C          67.2103   94.5286   10.1316 C.3     1  UNL1        0.3975
     36 F          68.1789   95.4387    9.4362 F       1  UNL1       -0.1701
     37 F          67.5760   93.4198    9.1899 F       1  UNL1       -0.1701
     38 F          66.8446   95.6373   11.0733 F       1  UNL1       -0.1701
@<TRIPOS>UNITY_ATOM_ATTR
26 1
charge -1
@<TRIPOS>BOND
     1    16    15    1
     2    16     1    1
     3     1     2   ar
     4     2     3   ar
     5     3     4   ar
     6     4     5   ar
     7     5     6   ar
     8     6     7   ar
     9     7    28    1
    10    29    28    1
    11    29    30    1
    12    30    31    1
    13    31    32    1
    14    32    35    1
    15    35    36    1
    16    35    37    1
    17    35    38    1
    18    32    33    1
    19    33    34    1
    20     7     8   ar
    21     8    11    1
    22    11    12    1
    23    11    13    1
    24    11    14    1
    25     8     9   ar
    26     9    10   ar
    27    16    17    1
    28    17    18    1
    29    18    19    1
    30    19    20    1
    31    20    21    1
    32    21    22    1
    33    22    23    1
    34    23    25    1
    35    25    26   ar
    36    25    27   ar
    37    23    24    1
    38    10     1   ar
    39    21    17    1
    40     9     4   ar
    41    24    18    1
    42    34    29    1
@<TRIPOS>MOLECULE
*****
 38 42 0 0 0
SMALL
GASTEIGER

@<TRIPOS>ATOM
      1 C          61.7499   87.2555   10.4725 C.ar    1  UNL1       -0.0078
      2 C          61.9870   86.1720   11.4823 C.ar    1  UNL1       -0.0030
      3 C          62.8110   86.4526   12.7039 C.ar    1  UNL1       -0.0003
      4 C          63.3980   87.8166   12.9156 C.ar    1  UNL1        0.0001
      5 C          64.2221   88.0971   14.1372 C.ar    1  UNL1        0.0031
      6 C          64.8091   89.4612   14.3489 C.ar    1  UNL1        0.0368
      7 C          64.5720   90.5447   13.3390 C.ar    1  UNL1        0.1422
      8 C          63.7480   90.2641   12.1175 C.ar    1  UNL1        0.1053
      9 C          63.1610   88.9001   11.9058 C.ar    1  UNL1        0.0066
     10 C          62.3369   88.6195   10.6842 C.ar    1  UNL1       -0.0029
     11 C          63.5109   91.3476   11.1077 C.3     1  UNL1        0.4214
     12 F          63.2739   92.4312   10.0977 F       1  UNL1       -0.1657
     13 F          62.4617   91.9466   11.9966 F       1  UNL1       -0.1657
     14 F          64.5601   90.7487   10.2187 F       1  UNL1       -0.1657
     15 C          59.6129   87.6733    9.0553 C.3     1  UNL1        0.0222
     16 C          60.9259   86.9750    9.2509 C.3     1  UNL1        0.0801
     17 N          61.4149   85.9961    8.2249 N.3     1  UNL1       -0.2729
     18 C          62.8357   85.5548    8.0341 C.3     1  UNL1        0.0581
     19 C          62.8679   84.5726    6.9008 C.3     1  UNL1        0.0174
     20 C          61.4669   84.4068    6.3912 C.3     1  UNL1        0.0174
     21 C          60.5689   85.2866    7.2096 C.3     1  UNL1        0.0581
     22 C          59.9202   86.2466    8.1775 C.3     1  UNL1        0.0215
     23 C          60.8889   86.8796    9.1318 C.3     1  UNL1        0.0392
     24 C          62.3467   86.5337    9.0601 C.3     1  UNL1        0.0215
     25 C          60.3999   87.8585   10.1577 C.2     1  UNL1        0.0501
     26 O          59.9559   87.7371   11.5854 O.co2   1  UNL1       -0.5492
     27 O          60.2810   89.3127    9.8100 O.co2   1  UNL1       -0.5492
     28 O          65.1590   91.9087   13.5507 O.3     1  UNL1       -0.4792
     29 C          65.7996   92.6355   12.4055 C.3     1  UNL1        0.1659
     30 C          66.8967   91.9796   11.6206 C.3     1  UNL1        0.0438
     31 C          67.5374   92.7064   10.4755 C.3     1  UNL1        0.0122
     32 C          67.0809   94.0891   10.1152 C.3     1  UNL1        0.0954
     33 C          65.9838   94.7450   10.9002 C.3     1  UNL1        0.0122
     34 C          65.3432   94.0182   12.0453 C.3     1  UNL1        0.0438
     35 C          67.7215   94.8159    8.9701 C.3     1  UNL1        0.3975
     36 F          68.3622   95.5427    7.8250 F       1  UNL1       -0.1701
     37 F          67.9748   93.5077    8.2815 F       1  UNL1       -0.1701
     38 F          67.4683   96.1242    9.6588 F       1  UNL1       -0.1701
@<TRIPOS>UNITY_ATOM_ATTR
26 1
charge -1
@<TRIPOS>BOND
     1    16    15    1
     2    16     1    1
     3     1     2   ar
     4     2     3   ar
     5     3     4   ar
     6     4     5   ar
     7     5     6   ar
     8     6     7   ar
     9     7    28    1
    10    29    28    1
    11    29    30    1
    12    30    31    1
    13    31    32    1
    14    32    35    1
    15    35    36    1
    16    35    37    1
    17    35    38    1
    18    32    33    1
    19    33    34    1
    20     7     8   ar
    21     8    11    1
    22    11    12    1
    23    11    13    1
    24    11    14    1
    25     8     9   ar
    26     9    10   ar
    27    16    17    1
    28    17    18    1
    29    18    19    1
    30    19    20    1
    31    20    21    1
    32    21    22    1
    33    22    23    1
    34    23    25    1
    35    25    26   ar
    36    25    27   ar
    37    23    24    1
    38    10     1   ar
    39    21    17    1
    40     9     4   ar
    41    24    18    1
    42    34    29    1
@<TRIPOS>MOLECULE
*****
 38 42 0 0 0
SMALL
GASTEIGER

@<TRIPOS>ATOM
      1 C          63.4590   85.0023   13.6812 C.ar    1  UNL1       -0.0078
      2 C          64.2006   84.9767   14.9848 C.ar    1  UNL1       -0.0030
      3 C          64.6233   86.2619   15.6324 C.ar    1  UNL1       -0.0003
      4 C          64.3044   87.5727   14.9766 C.ar    1  UNL1        0.0001
      5 C          64.7271   88.8579   15.6243 C.ar    1  UNL1        0.0031
      6 C          64.4082   90.1687   14.9685 C.ar    1  UNL1        0.0368
      7 C          63.6665   90.1942   13.6648 C.ar    1  UNL1        0.1422
      8 C          63.2438   88.9090   13.0172 C.ar    1  UNL1        0.1053
      9 C          63.5627   87.5983   13.6730 C.ar    1  UNL1        0.0066
     10 C          63.1400   86.3131   13.0254 C.ar    1  UNL1       -0.0029
     11 C          62.5021   88.9346   11.7136 C.3     1  UNL1        0.4214
     12 F          61.7604   88.9602   10.4100 F       1  UNL1       -0.1657
     13 F          63.8058   88.9274   10.9718 F       1  UNL1       -0.1657
     14 F          61.1985   88.9418   12.4555 F       1  UNL1       -0.1657
     15 C          62.1829   82.7417   13.7888 C.3     1  UNL1        0.0222
     16 C          63.0362   83.7170   13.0335 C.3     1  UNL1        0.0801
     17 N          63.4668   83.4072   11.6304 N.3     1  UNL1       -0.2729
     18 C          62.9489   84.0620   10.3843 C.3     1  UNL1        0.0581
     19 C          63.6530   83.4477    9.2108 C.3     1  UNL1        0.0174
     20 C          64.6060   82.4131    9.7318 C.3     1  UNL1        0.0174
     21 C          64.4910   82.3881   11.2272 C.3     1  UNL1        0.0581
     22 C          64.1690   82.5800   12.6896 C.3     1  UNL1        0.0215
     23 C          63.1283   83.6309   12.9400 C.3     1  UNL1        0.0392
     24 C          62.5183   84.3719   11.7873 C.3     1  UNL1        0.0215
     25 C          62.6977   83.9407   14.3430 C.2     1  UNL1        0.0501
     26 O          61.7374   84.9230   14.9455 O.co2   1  UNL1       -0.5492
     27 O          63.2784   83.1721   15.4928 O.co2   1  UNL1       -0.5492
     28 O          63.3475   91.5050   13.0090 O.3     1  UNL1       -0.4792
     29 C          64.3846   92.1991   12.1765 C.3     1  UNL1        0.1659
     30 C          64.2888   92.1682   10.6799 C.3     1  UNL1        0.0438
     31 C          65.3259   92.8623    9.8475 C.3     1  UNL1        0.0122
     32 C          66.4586   93.5872   10.5118 C.3     1  UNL1        0.0954
     33 C          66.5544   93.6181   12.0084 C.3     1  UNL1        0.0122
     34 C          65.5174   92.9241   12.8408 C.3     1  UNL1        0.0438
     35 C          67.4957   94.2813    9.6794 C.3     1  UNL1        0.3975
     36 F          68.5327   94.9754    8.8471 F       1  UNL1       -0.1701
     37 F          67.2397   95.5576   10.4248 F       1  UNL1       -0.1701
     38 F          67.7516   93.0050    8.9341 F       1  UNL1       -0.1701
@<TRIPOS>UNITY_ATOM_ATTR
26 1
charge -1
@<TRIPOS>BOND
     1    16    15    1
     2    16     1    1
     3     1     2   ar
     4     2     3   ar
     5     3     4   ar
     6     4     5   ar
     7     5     6   ar
     8     6     7   ar
     9     7    28    1
    10    29    28    1
    11    29    30    1
    12    30    31    1
    13    31    32    1
    14    32    35    1
    15    35    36    1
    16    35    37    1
    17    35    38    1
    18    32    33    1
    19    33    34    1
    20     7     8   ar
    21     8    11    1
    22    11    12    1
    23    11    13    1
    24    11    14    1
    25     8     9   ar
    26     9    10   ar
    27    16    17    1
    28    17    18    1
    29    18    19    1
    30    19    20    1
    31    20    21    1
    32    21    22    1
    33    22    23    1
    34    23    25    1
    35    25    26   ar
    36    25    27   ar
    37    23    24    1
    38    10     1   ar
    39    21    17    1
    40     9     4   ar
    41    24    18    1
    42    34    29    1
