@<TRIPOS>MOLECULE
*****
 22 26 0 0 0
SMALL
GASTEIGER

@<TRIPOS>ATOM
      1 O          62.2797   84.4614   11.3125 O.2     1  UNL1       -0.2699
      2 C          62.9243   85.3814   12.3067 C.2     1  UNL1        0.2505
      3 C          62.8577   86.8436   11.9789 C.ar    1  UNL1        0.0693
      4 C          62.1443   87.1270   10.6902 C.ar    1  UNL1        0.0060
      5 C          61.9890   88.5409   10.2142 C.ar    1  UNL1        0.0002
      6 C          62.5471   89.6714   11.0268 C.ar    1  UNL1        0.0015
      7 C          63.2606   89.3881   12.3154 C.ar    1  UNL1        0.0174
      8 C          63.9109   90.2901   13.3221 C.ar    1  UNL1        0.0201
      9 C          64.4681   89.4337   14.4203 C.ar    1  UNL1        0.0760
     10 N          64.1622   88.0023   14.0924 N.ar    1  UNL1       -0.3242
     11 C          63.4159   87.9741   12.7915 C.ar    1  UNL1        0.0643
     12 C          64.5285   86.8064   14.9058 C.3     1  UNL1        0.1275
     13 C          64.2641   85.3516   14.6540 C.3     1  UNL1        0.1181
     14 N          63.5502   84.7173   13.4972 N.am    1  UNL1       -0.2743
     15 C          63.0946   82.1132   13.0770 C.3     1  UNL1        0.0917
     16 C          62.0902   81.7276   13.9029 C.3     1  UNL1        0.0921
     17 N          61.4846   81.4470   14.3852 N.3     1  UNL1       -0.2713
     18 C          62.1180   80.4515   13.4590 C.3     1  UNL1        0.0722
     19 C          63.2287   80.8779   12.5455 C.3     1  UNL1        0.0191
     20 C          63.7061   82.2998   12.5583 C.3     1  UNL1        0.0224
     21 C          63.0728   83.2954   13.4845 C.3     1  UNL1        0.0191
     22 C          61.9620   82.8689   14.3979 C.3     1  UNL1        0.0722
@<TRIPOS>BOND
     1     1     2    2
     2     2     3    1
     3     3     4   ar
     4     4     5   ar
     5     5     6   ar
     6     6     7   ar
     7     7     8   ar
     8     8     9   ar
     9     9    10   ar
    10    10    11   ar
    11    10    12    1
    12    12    13    1
    13    13    14    1
    14    15    14    1
    15    15    16    1
    16    16    17    1
    17    17    18    1
    18    18    19    1
    19    19    20    1
    20    20    21    1
    21    21    22    1
    22    14     2   am
    23    20    15    1
    24    11     3   ar
    25    22    17    1
    26    11     7   ar
@<TRIPOS>MOLECULE
*****
 22 26 0 0 0
SMALL
GASTEIGER

@<TRIPOS>ATOM
      1 O          63.4157   90.2064   12.4952 O.2     1  UNL1       -0.2699
      2 C          63.5195   88.7515   12.8457 C.2     1  UNL1        0.2505
      3 C          62.8979   87.8003   11.8665 C.ar    1  UNL1        0.0693
      4 C          62.2724   88.4899   10.6905 C.ar    1  UNL1        0.0060
      5 C          61.6058   87.6835    9.6157 C.ar    1  UNL1        0.0002
      6 C          61.5646   86.1875    9.7169 C.ar    1  UNL1        0.0015
      7 C          62.1901   85.4979   10.8930 C.ar    1  UNL1        0.0174
      8 C          62.3050   84.0486   11.2622 C.ar    1  UNL1        0.0201
      9 C          63.0427   83.9593   12.5652 C.ar    1  UNL1        0.0760
     10 N          63.3837   85.3533   13.0014 N.ar    1  UNL1       -0.3242
     11 C          62.8568   86.3043   11.9678 C.ar    1  UNL1        0.0643
     12 C          64.1169   85.7423   14.2412 C.3     1  UNL1        0.1275
     13 C          64.4971   87.1012   14.7500 C.3     1  UNL1        0.1181
     14 N          64.2312   88.4405   14.1289 N.am    1  UNL1       -0.2743
     15 C          64.9243   90.8509   15.0643 C.3     1  UNL1        0.0917
     16 C          64.0466   91.1861   16.0425 C.3     1  UNL1        0.0921
     17 N          63.5390   91.4330   16.6421 N.3     1  UNL1       -0.2713
     18 C          64.6490   92.3732   16.2759 C.3     1  UNL1        0.0722
     19 C          65.6197   92.0024   15.1941 C.3     1  UNL1        0.0191
     20 C          65.4804   90.6915   14.4784 C.3     1  UNL1        0.0224
     21 C          64.3704   89.7514   14.8446 C.3     1  UNL1        0.0191
     22 C          63.3998   90.1221   15.9264 C.3     1  UNL1        0.0722
@<TRIPOS>BOND
     1     1     2    2
     2     2     3    1
     3     3     4   ar
     4     4     5   ar
     5     5     6   ar
     6     6     7   ar
     7     7     8   ar
     8     8     9   ar
     9     9    10   ar
    10    10    11   ar
    11    10    12    1
    12    12    13    1
    13    13    14    1
    14    15    14    1
    15    15    16    1
    16    16    17    1
    17    17    18    1
    18    18    19    1
    19    19    20    1
    20    20    21    1
    21    21    22    1
    22    14     2   am
    23    20    15    1
    24    11     3   ar
    25    22    17    1
    26    11     7   ar
@<TRIPOS>MOLECULE
*****
 22 26 0 0 0
SMALL
GASTEIGER

@<TRIPOS>ATOM
      1 O          63.9540   85.7598   14.3828 O.2     1  UNL1       -0.2699
      2 C          63.3811   86.4422   13.1761 C.2     1  UNL1        0.2505
      3 C          63.5771   87.9281   13.1143 C.ar    1  UNL1        0.0693
      4 C          64.3256   88.4736   14.2941 C.ar    1  UNL1        0.0060
      5 C          64.6073   89.9438   14.3890 C.ar    1  UNL1        0.0002
      6 C          64.1405   90.8685   13.3041 C.ar    1  UNL1        0.0015
      7 C          63.3920   90.3230   12.1243 C.ar    1  UNL1        0.0174
      8 C          62.8117   90.9855   10.9101 C.ar    1  UNL1        0.0201
      9 C          62.1713   89.9247   10.0647 C.ar    1  UNL1        0.0760
     10 N          62.3558   88.6066   10.7564 N.ar    1  UNL1       -0.3242
     11 C          63.1103   88.8528   12.0294 C.ar    1  UNL1        0.0643
     12 C          61.8793   87.2767   10.2765 C.3     1  UNL1        0.1275
     13 C          62.0195   85.9199   10.9003 C.3     1  UNL1        0.1181
     14 N          62.6879   85.5484   12.1909 N.am    1  UNL1       -0.2743
     15 C          62.9213   83.1133   13.2777 C.3     1  UNL1        0.0917
     16 C          63.9344   82.4705   12.6454 C.3     1  UNL1        0.0921
     17 N          64.5408   82.0404   12.2914 N.3     1  UNL1       -0.2713
     18 C          63.7865   81.3528   13.3906 C.3     1  UNL1        0.0722
     19 C          62.6660   82.0638   14.0899 C.3     1  UNL1        0.0191
     20 C          62.2998   83.4623   13.6900 C.3     1  UNL1        0.0224
     21 C          63.0541   84.1499   12.5908 C.3     1  UNL1        0.0191
     22 C          64.1746   83.4389   11.8915 C.3     1  UNL1        0.0722
@<TRIPOS>BOND
     1     1     2    2
     2     2     3    1
     3     3     4   ar
     4     4     5   ar
     5     5     6   ar
     6     6     7   ar
     7     7     8   ar
     8     8     9   ar
     9     9    10   ar
    10    10    11   ar
    11    10    12    1
    12    12    13    1
    13    13    14    1
    14    15    14    1
    15    15    16    1
    16    16    17    1
    17    17    18    1
    18    18    19    1
    19    19    20    1
    20    20    21    1
    21    21    22    1
    22    14     2   am
    23    20    15    1
    24    11     3   ar
    25    22    17    1
    26    11     7   ar
@<TRIPOS>MOLECULE
*****
 22 26 0 0 0
SMALL
GASTEIGER

@<TRIPOS>ATOM
      1 O          63.1885   90.8273   10.0762 O.2     1  UNL1       -0.2699
      2 C          63.7766   90.8515   11.4559 C.2     1  UNL1        0.2505
      3 C          64.6855   92.0064   11.7559 C.ar    1  UNL1        0.0693
      4 C          64.8450   92.9472   10.5985 C.ar    1  UNL1        0.0060
      5 C          65.7218   94.1570   10.7308 C.ar    1  UNL1        0.0002
      6 C          66.4390   94.4261   12.0204 C.ar    1  UNL1        0.0015
      7 C          66.2795   93.4854   13.1778 C.ar    1  UNL1        0.0174
      8 C          66.8566   93.4905   14.5623 C.ar    1  UNL1        0.0201
      9 C          66.3366   92.2837   15.2857 C.ar    1  UNL1        0.0760
     10 N          65.4380   91.5328   14.3483 N.ar    1  UNL1       -0.3242
     11 C          65.4028   92.2756   13.0455 C.ar    1  UNL1        0.0643
     12 C          64.7021   90.2691   14.6440 C.3     1  UNL1        0.1275
     13 C          63.7899   89.4583   13.7721 C.3     1  UNL1        0.1181
     14 N          63.3780   89.7174   12.3532 N.am    1  UNL1       -0.2743
     15 C          61.7456   88.2481   10.8228 C.3     1  UNL1        0.0917
     16 C          60.4904   88.7439   10.9573 C.3     1  UNL1        0.0921
     17 N          59.7124   89.0093   11.0070 N.3     1  UNL1       -0.2713
     18 C          59.9620   87.8327   10.1106 C.3     1  UNL1        0.0722
     19 C          61.3503   87.2845    9.9618 C.3     1  UNL1        0.0191
     20 C          62.4889   87.9127   10.7093 C.3     1  UNL1        0.0224
     21 C          62.2393   89.0892   11.6057 C.3     1  UNL1        0.0191
     22 C          60.8511   89.6375   11.7545 C.3     1  UNL1        0.0722
@<TRIPOS>BOND
     1     1     2    2
     2     2     3    1
     3     3     4   ar
     4     4     5   ar
     5     5     6   ar
     6     6     7   ar
     7     7     8   ar
     8     8     9   ar
     9     9    10   ar
    10    10    11   ar
    11    10    12    1
    12    12    13    1
    13    13    14    1
    14    15    14    1
    15    15    16    1
    16    16    17    1
    17    17    18    1
    18    18    19    1
    19    19    20    1
    20    20    21    1
    21    21    22    1
    22    14     2   am
    23    20    15    1
    24    11     3   ar
    25    22    17    1
    26    11     7   ar
@<TRIPOS>MOLECULE
*****
 22 26 0 0 0
SMALL
GASTEIGER

@<TRIPOS>ATOM
      1 O          61.9199   84.3014   11.1423 O.2     1  UNL1       -0.2699
      2 C          62.5183   85.4920   11.8312 C.2     1  UNL1        0.2505
      3 C          62.1787   86.8267   11.2367 C.ar    1  UNL1        0.0693
      4 C          61.2843   86.7272   10.0368 C.ar    1  UNL1        0.0060
      5 C          60.8484   87.9713    9.3211 C.ar    1  UNL1        0.0002
      6 C          61.3069   89.3149    9.8055 C.ar    1  UNL1        0.0015
      7 C          62.2014   89.4143   11.0054 C.ar    1  UNL1        0.0174
      8 C          62.8096   90.5911   11.7092 C.ar    1  UNL1        0.0201
      9 C          63.6215   90.0743   12.8598 C.ar    1  UNL1        0.0760
     10 N          63.5150   88.5781   12.8672 N.ar    1  UNL1       -0.3242
     11 C          62.6373   88.1702   11.7211 C.ar    1  UNL1        0.0643
     12 C          64.1615   87.6459   13.8362 C.3     1  UNL1        0.1275
     13 C          64.1084   86.1490   13.9158 C.3     1  UNL1        0.1181
     14 N          63.3770   85.1904   13.0235 N.am    1  UNL1       -0.2743
     15 C          63.3026   82.5199   13.1931 C.3     1  UNL1        0.0917
     16 C          62.2484   82.1817   13.9766 C.3     1  UNL1        0.0921
     17 N          61.6207   81.9279   14.4453 N.3     1  UNL1       -0.2713
     18 C          62.4914   80.8577   13.8565 C.3     1  UNL1        0.0722
     19 C          63.6573   81.2318   12.9900 C.3     1  UNL1        0.0191
     20 C          63.9525   82.6760   12.7124 C.3     1  UNL1        0.0224
     21 C          63.0818   83.7462   13.3012 C.3     1  UNL1        0.0191
     22 C          61.9159   83.3721   14.1676 C.3     1  UNL1        0.0722
@<TRIPOS>BOND
     1     1     2    2
     2     2     3    1
     3     3     4   ar
     4     4     5   ar
     5     5     6   ar
     6     6     7   ar
     7     7     8   ar
     8     8     9   ar
     9     9    10   ar
    10    10    11   ar
    11    10    12    1
    12    12    13    1
    13    13    14    1
    14    15    14    1
    15    15    16    1
    16    16    17    1
    17    17    18    1
    18    18    19    1
    19    19    20    1
    20    20    21    1
    21    21    22    1
    22    14     2   am
    23    20    15    1
    24    11     3   ar
    25    22    17    1
    26    11     7   ar
@<TRIPOS>MOLECULE
*****
 22 26 0 0 0
SMALL
GASTEIGER

@<TRIPOS>ATOM
      1 O          62.2174   84.9662   10.7629 O.2     1  UNL1       -0.2699
      2 C          62.5142   86.3888   11.1350 C.2     1  UNL1        0.2505
      3 C          63.1554   86.5906   12.4759 C.ar    1  UNL1        0.0693
      4 C          63.3885   85.3075   13.2170 C.ar    1  UNL1        0.0060
      5 C          64.0227   85.3310   14.5761 C.ar    1  UNL1        0.0002
      6 C          64.4237   86.6376   15.1941 C.ar    1  UNL1        0.0015
      7 C          64.1906   87.9207   14.4530 C.ar    1  UNL1        0.0174
      8 C          64.4788   89.3500   14.8054 C.ar    1  UNL1        0.0201
      9 C          64.0228   90.2098   13.6640 C.ar    1  UNL1        0.0760
     10 N          63.4527   89.3120   12.6062 N.ar    1  UNL1       -0.3242
     11 C          63.5565   87.8972   13.0939 C.ar    1  UNL1        0.0643
     12 C          62.8798   89.7355   11.2953 C.3     1  UNL1        0.1275
     13 C          62.2932   88.9108   10.1882 C.3     1  UNL1        0.1181
     14 N          62.1304   87.4213   10.1168 N.am    1  UNL1       -0.2743
     15 C          61.0776   85.9783    8.1231 C.3     1  UNL1        0.0917
     16 C          62.0801   85.2673    7.5494 C.3     1  UNL1        0.0921
     17 N          62.6546   84.8164    7.1690 N.3     1  UNL1       -0.2713
     18 C          61.2538   84.6934    6.6470 C.3     1  UNL1        0.0722
     19 C          60.1452   85.4797    7.2816 C.3     1  UNL1        0.0191
     20 C          60.4374   86.3890    8.4382 C.3     1  UNL1        0.0224
     21 C          61.8382   86.5120    8.9602 C.3     1  UNL1        0.0191
     22 C          62.9468   85.7257    8.3256 C.3     1  UNL1        0.0722
@<TRIPOS>BOND
     1     1     2    2
     2     2     3    1
     3     3     4   ar
     4     4     5   ar
     5     5     6   ar
     6     6     7   ar
     7     7     8   ar
     8     8     9   ar
     9     9    10   ar
    10    10    11   ar
    11    10    12    1
    12    12    13    1
    13    13    14    1
    14    15    14    1
    15    15    16    1
    16    16    17    1
    17    17    18    1
    18    18    19    1
    19    19    20    1
    20    20    21    1
    21    21    22    1
    22    14     2   am
    23    20    15    1
    24    11     3   ar
    25    22    17    1
    26    11     7   ar
@<TRIPOS>MOLECULE
*****
 22 26 0 0 0
SMALL
GASTEIGER

@<TRIPOS>ATOM
      1 O          64.6484   88.2996   14.5865 O.2     1  UNL1       -0.2699
      2 C          63.8627   88.5098   13.3261 C.2     1  UNL1        0.2505
      3 C          63.3160   87.2686   12.6853 C.ar    1  UNL1        0.0693
      4 C          63.6609   86.0167   13.4360 C.ar    1  UNL1        0.0060
      5 C          63.1907   84.6852   12.9300 C.ar    1  UNL1        0.0002
      6 C          62.3758   84.6057   11.6732 C.ar    1  UNL1        0.0015
      7 C          62.0310   85.8576   10.9224 C.ar    1  UNL1        0.0174
      8 C          61.2489   86.0900    9.6637 C.ar    1  UNL1        0.0201
      9 C          61.2356   87.5651    9.3918 C.ar    1  UNL1        0.0760
     10 N          62.0096   88.2444   10.4825 N.ar    1  UNL1       -0.3242
     11 C          62.5011   87.1891   11.4285 C.ar    1  UNL1        0.0643
     12 C          62.2560   89.7098   10.6172 C.3     1  UNL1        0.1275
     13 C          63.0127   90.4675   11.6675 C.3     1  UNL1        0.1181
     14 N          63.7278   89.9334   12.8732 N.am    1  UNL1       -0.2743
     15 C          65.0708   91.3149   14.7315 C.3     1  UNL1        0.0917
     16 C          64.2648   91.4493   15.8139 C.3     1  UNL1        0.0921
     17 N          63.8126   91.5565   16.4937 N.3     1  UNL1       -0.2713
     18 C          65.1922   92.1451   16.5082 C.3     1  UNL1        0.0722
     19 C          66.0837   91.9965   15.3110 C.3     1  UNL1        0.0191
     20 C          65.5955   91.2593   14.0994 C.3     1  UNL1        0.0224
     21 C          64.2159   90.6706   14.0849 C.3     1  UNL1        0.0191
     22 C          63.3245   90.8193   15.2821 C.3     1  UNL1        0.0722
@<TRIPOS>BOND
     1     1     2    2
     2     2     3    1
     3     3     4   ar
     4     4     5   ar
     5     5     6   ar
     6     6     7   ar
     7     7     8   ar
     8     8     9   ar
     9     9    10   ar
    10    10    11   ar
    11    10    12    1
    12    12    13    1
    13    13    14    1
    14    15    14    1
    15    15    16    1
    16    16    17    1
    17    17    18    1
    18    18    19    1
    19    19    20    1
    20    20    21    1
    21    21    22    1
    22    14     2   am
    23    20    15    1
    24    11     3   ar
    25    22    17    1
    26    11     7   ar
@<TRIPOS>MOLECULE
*****
 22 26 0 0 0
SMALL
GASTEIGER

@<TRIPOS>ATOM
      1 O          61.8795   88.5838    9.3584 O.2     1  UNL1       -0.2699
      2 C          62.3941   87.9233   10.6030 C.2     1  UNL1        0.2505
      3 C          62.9785   88.8430   11.6339 C.ar    1  UNL1        0.0693
      4 C          62.9420   90.2858   11.2253 C.ar    1  UNL1        0.0060
      5 C          63.4877   91.3392   12.1431 C.ar    1  UNL1        0.0002
      6 C          64.0700   90.9498   13.4695 C.ar    1  UNL1        0.0015
      7 C          64.1065   89.5070   13.8781 C.ar    1  UNL1        0.0174
      8 C          64.6149   88.8265   15.1144 C.ar    1  UNL1        0.0201
      9 C          64.3834   87.3525   14.9606 C.ar    1  UNL1        0.0760
     10 N          63.7319   87.1220   13.6293 N.ar    1  UNL1       -0.3242
     11 C          63.5608   88.4536   12.9603 C.ar    1  UNL1        0.0643
     12 C          63.3206   85.8069   13.0570 C.3     1  UNL1        0.1275
     13 C          62.6684   85.4886   11.7443 C.3     1  UNL1        0.1181
     14 N          62.2560   86.4305   10.6521 N.am    1  UNL1       -0.2743
     15 C          61.0923   85.8291    8.3177 C.3     1  UNL1        0.0917
     16 C          62.0223   85.2342    7.5299 C.3     1  UNL1        0.0921
     17 N          62.5517   84.8689    7.0157 N.3     1  UNL1       -0.2713
     18 C          61.1567   85.0750    6.5044 C.3     1  UNL1        0.0722
     19 C          60.1281   85.7329    7.3757 C.3     1  UNL1        0.0191
     20 C          60.4945   86.1848    8.7582 C.3     1  UNL1        0.0224
     21 C          61.8896   85.9787    9.2696 C.3     1  UNL1        0.0191
     22 C          62.9181   85.3207    8.3982 C.3     1  UNL1        0.0722
@<TRIPOS>BOND
     1     1     2    2
     2     2     3    1
     3     3     4   ar
     4     4     5   ar
     5     5     6   ar
     6     6     7   ar
     7     7     8   ar
     8     8     9   ar
     9     9    10   ar
    10    10    11   ar
    11    10    12    1
    12    12    13    1
    13    13    14    1
    14    15    14    1
    15    15    16    1
    16    16    17    1
    17    17    18    1
    18    18    19    1
    19    19    20    1
    20    20    21    1
    21    21    22    1
    22    14     2   am
    23    20    15    1
    24    11     3   ar
    25    22    17    1
    26    11     7   ar
@<TRIPOS>MOLECULE
*****
 22 26 0 0 0
SMALL
GASTEIGER

@<TRIPOS>ATOM
      1 O          61.8147   89.3247   12.6647 O.2     1  UNL1       -0.2699
      2 C          62.8406   90.3223   12.2147 C.2     1  UNL1        0.2505
      3 C          63.7128   90.8911   13.2943 C.ar    1  UNL1        0.0693
      4 C          63.3950   90.3485   14.6561 C.ar    1  UNL1        0.0060
      5 C          64.1752   90.8137   15.8497 C.ar    1  UNL1        0.0002
      6 C          65.2733   91.8217   15.6815 C.ar    1  UNL1        0.0015
      7 C          65.5912   92.3643   14.3197 C.ar    1  UNL1        0.0174
      8 C          66.6097   93.3595   13.8484 C.ar    1  UNL1        0.0201
      9 C          66.4590   93.5093   12.3636 C.ar    1  UNL1        0.0760
     10 N          65.3473   92.6067   11.9171 N.ar    1  UNL1       -0.3242
     11 C          64.8109   91.8990   13.1261 C.ar    1  UNL1        0.0643
     12 C          64.8506   92.4321   10.5211 C.3     1  UNL1        0.1275
     13 C          63.7530   91.5581    9.9907 C.3     1  UNL1        0.1181
     14 N          62.8584   90.6191   10.7444 N.am    1  UNL1       -0.2743
     15 C          60.9059   89.0710    9.7663 C.3     1  UNL1        0.0917
     16 C          61.4310   87.8452    9.5187 C.3     1  UNL1        0.0921
     17 N          61.7042   87.0864    9.3523 N.3     1  UNL1       -0.2713
     18 C          60.2560   87.3536    9.0669 C.3     1  UNL1        0.0722
     19 C          59.6754   88.7093    9.3407 C.3     1  UNL1        0.0191
     20 C          60.5428   89.7978    9.8998 C.3     1  UNL1        0.0224
     21 C          61.9910   89.5306   10.1853 C.3     1  UNL1        0.0191
     22 C          62.5716   88.1749    9.9115 C.3     1  UNL1        0.0722
@<TRIPOS>BOND
     1     1     2    2
     2     2     3    1
     3     3     4   ar
     4     4     5   ar
     5     5     6   ar
     6     6     7   ar
     7     7     8   ar
     8     8     9   ar
     9     9    10   ar
    10    10    11   ar
    11    10    12    1
    12    12    13    1
    13    13    14    1
    14    15    14    1
    15    15    16    1
    16    16    17    1
    17    17    18    1
    18    18    19    1
    19    19    20    1
    20    20    21    1
    21    21    22    1
    22    14     2   am
    23    20    15    1
    24    11     3   ar
    25    22    17    1
    26    11     7   ar
