@<TRIPOS>MOLECULE
*****
 31 34 0 0 0
SMALL
GASTEIGER

@<TRIPOS>ATOM
      1 C          62.4345   89.5977   11.3000 C.3     1  UNL1        0.1025
      2 C          62.6009   90.3052    9.9879 C.3     1  UNL1        0.0259
      3 C          63.5489   91.4620    9.8746 C.3     1  UNL1        0.0450
      4 C          64.3306   91.9114   11.0734 C.ar    1  UNL1        0.0336
      5 C          65.3318   93.0120   11.2638 C.ar    1  UNL1       -0.0035
      6 C          65.7841   92.9848   12.6937 C.ar    1  UNL1        0.0156
      7 C          66.7599   93.8331   13.4541 C.ar    1  UNL1        0.0036
      8 C          67.0141   93.5639   14.9078 C.ar    1  UNL1        0.0321
      9 C          66.2924   92.4465   15.6010 C.ar    1  UNL1        0.1688
     10 F          66.5465   92.1773   17.0546 F       1  UNL1       -0.2017
     11 C          65.3166   91.5981   14.8405 C.ar    1  UNL1        0.1830
     12 F          64.5950   90.4807   15.5338 F       1  UNL1       -0.2003
     13 C          65.0625   91.8673   13.3869 C.ar    1  UNL1        0.0894
     14 N          64.1641   91.2039   12.3855 N.ar    1  UNL1       -0.3277
     15 C          63.2161   90.0471   12.4988 C.3     1  UNL1        0.1234
     16 C          60.0453   88.6826   11.7522 C.3     1  UNL1        0.1149
     17 N          61.4864   88.4408   11.4134 N.3     1  UNL1       -0.1535
     18 S          61.9794   87.0422   11.1880 S.O2    1  UNL1        0.0633
     19 O          61.0572   86.9065   10.0128 O.2     1  UNL1       -0.1528
     20 O          62.9017   87.1780   12.3632 O.2     1  UNL1       -0.1528
     21 C          62.4725   85.6436   10.9626 C.ar    1  UNL1        0.1223
     22 C          62.9463   85.2255    9.6022 C.ar    1  UNL1        0.0222
     23 C          63.4393   83.8269    9.3768 C.ar    1  UNL1        0.0310
     24 C          63.4586   82.8464   10.5117 C.ar    1  UNL1        0.1402
     25 F          63.9517   81.4478   10.2863 F       1  UNL1       -0.2042
     26 C          62.9849   83.2645   11.8722 C.ar    1  UNL1        0.0310
     27 C          62.4918   84.6631   12.0976 C.ar    1  UNL1        0.0222
     28 C          65.7987   93.9714   10.2095 C.3     1  UNL1        0.0691
     29 C          67.1476   93.7937    9.5781 C.2     1  UNL1        0.0548
     30 O          68.1492   92.8648   10.1976 O.co2   1  UNL1       -0.5488
     31 O          67.4948   94.5448    8.3270 O.co2   1  UNL1       -0.5488
@<TRIPOS>UNITY_ATOM_ATTR
30 1
charge -1
@<TRIPOS>BOND
     1    16    17    1
     2     1    17    1
     3     1     2    1
     4     2     3    1
     5     3     4    1
     6     4     5   ar
     7     5    28    1
     8    28    29    1
     9    29    30   ar
    10    29    31   ar
    11     5     6   ar
    12     6     7   ar
    13     7     8   ar
    14     8     9   ar
    15     9    10    1
    16     9    11   ar
    17    11    12    1
    18    11    13   ar
    19    13    14   ar
    20    14    15    1
    21    17    18    1
    22    18    19    2
    23    18    20    2
    24    18    21    1
    25    21    22   ar
    26    22    23   ar
    27    23    24   ar
    28    24    25    1
    29    24    26   ar
    30    26    27   ar
    31    15     1    1
    32    27    21   ar
    33    14     4   ar
    34    13     6   ar
@<TRIPOS>MOLECULE
*****
 31 34 0 0 0
SMALL
GASTEIGER

@<TRIPOS>ATOM
      1 C          62.4980   90.2932   11.2770 C.3     1  UNL1        0.1025
      2 C          62.9027   90.9885   10.0111 C.3     1  UNL1        0.0259
      3 C          64.0264   91.9821   10.0275 C.3     1  UNL1        0.0450
      4 C          64.7452   92.2803   11.3098 C.ar    1  UNL1        0.0336
      5 C          65.8820   93.2046   11.6316 C.ar    1  UNL1       -0.0035
      6 C          66.1798   93.0804   13.0965 C.ar    1  UNL1        0.0156
      7 C          67.1954   93.7495   13.9745 C.ar    1  UNL1        0.0036
      8 C          67.2582   93.4176   15.4361 C.ar    1  UNL1        0.0321
      9 C          66.3055   92.4167   16.0195 C.ar    1  UNL1        0.1688
     10 F          66.3683   92.0848   17.4810 F       1  UNL1       -0.2017
     11 C          65.2898   91.7476   15.1415 C.ar    1  UNL1        0.1830
     12 F          64.3371   90.7467   15.7250 F       1  UNL1       -0.2003
     13 C          65.2270   92.0795   13.6800 C.ar    1  UNL1        0.0894
     14 N          64.3404   91.5850   12.5757 N.ar    1  UNL1       -0.3277
     15 C          63.2168   90.5915   12.5594 C.3     1  UNL1        0.1234
     16 C          60.2818   89.3860   12.2849 C.3     1  UNL1        0.1149
     17 N          61.3743   89.2996   11.2607 N.3     1  UNL1       -0.1535
     18 S          61.3431   88.2198   10.2201 S.O2    1  UNL1        0.0633
     19 O          60.2933   88.9787    9.4639 O.2     1  UNL1       -0.1528
     20 O          62.3929   87.4608   10.9763 O.2     1  UNL1       -0.1528
     21 C          61.3119   87.1399    9.1795 C.ar    1  UNL1        0.1223
     22 C          62.5403   86.3222    8.9101 C.ar    1  UNL1        0.0222
     23 C          62.5091   85.2423    7.8695 C.ar    1  UNL1        0.0310
     24 C          61.2496   84.9801    7.0983 C.ar    1  UNL1        0.1402
     25 F          61.2184   83.9002    6.0577 F       1  UNL1       -0.2042
     26 C          60.0212   85.7977    7.3677 C.ar    1  UNL1        0.0310
     27 C          60.0523   86.8776    8.4083 C.ar    1  UNL1        0.0222
     28 C          66.5957   94.0963   10.6593 C.3     1  UNL1        0.0691
     29 C          67.6531   93.5297    9.7588 C.2     1  UNL1        0.0548
     30 O          68.5645   92.4488   10.2597 O.co2   1  UNL1       -0.5488
     31 O          67.7989   94.0441    8.3573 O.co2   1  UNL1       -0.5488
@<TRIPOS>UNITY_ATOM_ATTR
30 1
charge -1
@<TRIPOS>BOND
     1    16    17    1
     2     1    17    1
     3     1     2    1
     4     2     3    1
     5     3     4    1
     6     4     5   ar
     7     5    28    1
     8    28    29    1
     9    29    30   ar
    10    29    31   ar
    11     5     6   ar
    12     6     7   ar
    13     7     8   ar
    14     8     9   ar
    15     9    10    1
    16     9    11   ar
    17    11    12    1
    18    11    13   ar
    19    13    14   ar
    20    14    15    1
    21    17    18    1
    22    18    19    2
    23    18    20    2
    24    18    21    1
    25    21    22   ar
    26    22    23   ar
    27    23    24   ar
    28    24    25    1
    29    24    26   ar
    30    26    27   ar
    31    15     1    1
    32    27    21   ar
    33    14     4   ar
    34    13     6   ar
@<TRIPOS>MOLECULE
*****
 31 34 0 0 0
SMALL
GASTEIGER

@<TRIPOS>ATOM
      1 C          64.4773   89.8869   13.7488 C.3     1  UNL1        0.1025
      2 C          64.8086   88.7119   14.6203 C.3     1  UNL1        0.0259
      3 C          64.2879   87.3491   14.2717 C.3     1  UNL1        0.0450
      4 C          63.4358   87.1614   13.0515 C.ar    1  UNL1        0.0336
      5 C          62.7844   85.9467   12.4594 C.ar    1  UNL1       -0.0035
      6 C          62.0505   86.3712   11.2220 C.ar    1  UNL1        0.0156
      7 C          61.2277   85.6037   10.2301 C.ar    1  UNL1        0.0036
      8 C          60.6026   86.3130    9.0655 C.ar    1  UNL1        0.0321
      9 C          60.8005   87.7898    8.8928 C.ar    1  UNL1        0.1688
     10 F          60.1755   88.4992    7.7283 F       1  UNL1       -0.2017
     11 C          61.6234   88.5574    9.8848 C.ar    1  UNL1        0.1830
     12 F          61.8212   90.0342    9.7120 F       1  UNL1       -0.2003
     13 C          62.2484   87.8480   11.0493 C.ar    1  UNL1        0.0894
     14 N          63.1045   88.3364   12.1800 N.ar    1  UNL1       -0.3277
     15 C          63.6253   89.6991   12.5286 C.3     1  UNL1        0.1234
     16 C          64.9304   91.7388   15.5138 C.3     1  UNL1        0.1149
     17 N          64.9981   91.2498   14.0974 N.3     1  UNL1       -0.1535
     18 S          65.5864   92.1236   13.0296 S.O2    1  UNL1        0.0633
     19 O          66.9630   91.8316   13.5491 O.2     1  UNL1       -0.1528
     20 O          64.2099   92.4156   12.5101 O.2     1  UNL1       -0.1528
     21 C          66.1748   92.9974   11.9617 C.ar    1  UNL1        0.1223
     22 C          66.0564   94.4892   12.0637 C.ar    1  UNL1        0.0222
     23 C          66.6448   95.3630   10.9958 C.ar    1  UNL1        0.0310
     24 C          67.3516   94.7450    9.8260 C.ar    1  UNL1        0.1402
     25 F          67.9399   95.6188    8.7582 F       1  UNL1       -0.2042
     26 C          67.4700   93.2531    9.7240 C.ar    1  UNL1        0.0310
     27 C          66.8816   92.3793   10.7919 C.ar    1  UNL1        0.0222
     28 C          62.8546   84.5526   13.0084 C.3     1  UNL1        0.0691
     29 C          62.8508   84.3296   14.4917 C.2     1  UNL1        0.0548
     30 O          63.9909   83.6055   15.1442 O.co2   1  UNL1       -0.5488
     31 O          61.7068   84.8307   15.3225 O.co2   1  UNL1       -0.5488
@<TRIPOS>UNITY_ATOM_ATTR
30 1
charge -1
@<TRIPOS>BOND
     1    16    17    1
     2     1    17    1
     3     1     2    1
     4     2     3    1
     5     3     4    1
     6     4     5   ar
     7     5    28    1
     8    28    29    1
     9    29    30   ar
    10    29    31   ar
    11     5     6   ar
    12     6     7   ar
    13     7     8   ar
    14     8     9   ar
    15     9    10    1
    16     9    11   ar
    17    11    12    1
    18    11    13   ar
    19    13    14   ar
    20    14    15    1
    21    17    18    1
    22    18    19    2
    23    18    20    2
    24    18    21    1
    25    21    22   ar
    26    22    23   ar
    27    23    24   ar
    28    24    25    1
    29    24    26   ar
    30    26    27   ar
    31    15     1    1
    32    27    21   ar
    33    14     4   ar
    34    13     6   ar
@<TRIPOS>MOLECULE
*****
 31 34 0 0 0
SMALL
GASTEIGER

@<TRIPOS>ATOM
      1 C          63.7964   88.9895   13.5784 C.3     1  UNL1        0.1025
      2 C          64.1929   87.6798   14.1926 C.3     1  UNL1        0.0259
      3 C          63.7923   86.3919   13.5365 C.3     1  UNL1        0.0450
      4 C          62.9951   86.4137   12.2660 C.ar    1  UNL1        0.0336
      5 C          62.4598   85.3136   11.3980 C.ar    1  UNL1       -0.0035
      6 C          61.7325   85.9435   10.2472 C.ar    1  UNL1        0.0156
      7 C          61.0033   85.3534    9.0768 C.ar    1  UNL1        0.0036
      8 C          60.3597   86.2526    8.0632 C.ar    1  UNL1        0.0321
      9 C          60.4454   87.7419    8.2201 C.ar    1  UNL1        0.1688
     10 F          59.8019   88.6411    7.2065 F       1  UNL1       -0.2017
     11 C          61.1747   88.3320    9.3906 C.ar    1  UNL1        0.1830
     12 F          61.2604   89.8214    9.5474 F       1  UNL1       -0.2003
     13 C          61.8182   87.4328   10.4041 C.ar    1  UNL1        0.0894
     14 N          62.5985   87.7234   11.6518 N.ar    1  UNL1       -0.3277
     15 C          62.9992   89.0113   12.3080 C.3     1  UNL1        0.1234
     16 C          64.0031   90.4593   15.7108 C.3     1  UNL1        0.1149
     17 N          64.1971   90.2776   14.2346 N.3     1  UNL1       -0.1535
     18 S          64.7917   91.3839   13.4144 S.O2    1  UNL1        0.0633
     19 O          63.4383   91.6881   12.8437 O.2     1  UNL1       -0.1528
     20 O          66.1451   91.0796   13.9852 O.2     1  UNL1       -0.1528
     21 C          65.3863   92.4901   12.5943 C.ar    1  UNL1        0.1223
     22 C          65.3131   92.4364   11.0971 C.ar    1  UNL1        0.0222
     23 C          65.9077   93.5427   10.2769 C.ar    1  UNL1        0.0310
     24 C          66.5755   94.7027   10.9540 C.ar    1  UNL1        0.1402
     25 F          67.1701   95.8089   10.1339 F       1  UNL1       -0.2042
     26 C          66.6487   94.7564   12.4513 C.ar    1  UNL1        0.0310
     27 C          66.0541   93.6501   13.2715 C.ar    1  UNL1        0.0222
     28 C          62.6233   83.8420   11.6384 C.3     1  UNL1        0.0691
     29 C          63.9963   83.2458   11.7349 C.2     1  UNL1        0.0548
     30 O          64.5101   82.7559   13.0562 O.co2   1  UNL1       -0.5488
     31 O          64.8554   83.1395   10.5099 O.co2   1  UNL1       -0.5488
@<TRIPOS>UNITY_ATOM_ATTR
30 1
charge -1
@<TRIPOS>BOND
     1    16    17    1
     2     1    17    1
     3     1     2    1
     4     2     3    1
     5     3     4    1
     6     4     5   ar
     7     5    28    1
     8    28    29    1
     9    29    30   ar
    10    29    31   ar
    11     5     6   ar
    12     6     7   ar
    13     7     8   ar
    14     8     9   ar
    15     9    10    1
    16     9    11   ar
    17    11    12    1
    18    11    13   ar
    19    13    14   ar
    20    14    15    1
    21    17    18    1
    22    18    19    2
    23    18    20    2
    24    18    21    1
    25    21    22   ar
    26    22    23   ar
    27    23    24   ar
    28    24    25    1
    29    24    26   ar
    30    26    27   ar
    31    15     1    1
    32    27    21   ar
    33    14     4   ar
    34    13     6   ar
@<TRIPOS>MOLECULE
*****
 31 34 0 0 0
SMALL
GASTEIGER

@<TRIPOS>ATOM
      1 C          63.6332   86.0265   13.4914 C.3     1  UNL1        0.1025
      2 C          64.1889   87.2858   14.0876 C.3     1  UNL1        0.0259
      3 C          63.8688   88.6137   13.4678 C.3     1  UNL1        0.0450
      4 C          62.9930   88.6823   12.2520 C.ar    1  UNL1        0.0336
      5 C          62.5081   89.8384   11.4283 C.ar    1  UNL1       -0.0035
      6 C          61.6527   89.2936   10.3231 C.ar    1  UNL1        0.0156
      7 C          60.9079   89.9638    9.2069 C.ar    1  UNL1        0.0036
      8 C          60.1194   89.1413    8.2312 C.ar    1  UNL1        0.0321
      9 C          60.0757   87.6486    8.3718 C.ar    1  UNL1        0.1688
     10 F          59.2872   86.8261    7.3962 F       1  UNL1       -0.2017
     11 C          60.8205   86.9783    9.4882 C.ar    1  UNL1        0.1830
     12 F          60.7767   85.4855    9.6287 F       1  UNL1       -0.2003
     13 C          61.6090   87.8008   10.4638 C.ar    1  UNL1        0.0894
     14 N          62.4373   87.4231   11.6559 N.ar    1  UNL1       -0.3277
     15 C          62.7574   86.0951   12.2756 C.3     1  UNL1        0.1234
     16 C          64.5725   84.6375   15.4760 C.3     1  UNL1        0.1149
     17 N          63.9533   84.6985   14.1112 N.3     1  UNL1       -0.1535
     18 S          63.6542   83.4315   13.3660 S.O2    1  UNL1        0.0633
     19 O          62.4000   83.2550   14.1696 O.2     1  UNL1       -0.1528
     20 O          64.9084   83.6080   12.5624 O.2     1  UNL1       -0.1528
     21 C          63.3551   82.1645   12.6208 C.ar    1  UNL1        0.1223
     22 C          63.5570   82.1023   11.1358 C.ar    1  UNL1        0.0222
     23 C          63.2579   80.8353   10.3906 C.ar    1  UNL1        0.0310
     24 C          62.7568   79.6306   11.1305 C.ar    1  UNL1        0.1402
     25 F          62.4576   78.3636   10.3853 F       1  UNL1       -0.2042
     26 C          62.5548   79.6928   12.6156 C.ar    1  UNL1        0.0310
     27 C          62.8539   80.9597   13.3607 C.ar    1  UNL1        0.0222
     28 C          62.8232   91.2852   11.6678 C.3     1  UNL1        0.0691
     29 C          64.2396   91.7137   11.9131 C.2     1  UNL1        0.0548
     30 O          65.1538   91.9807   10.7542 O.co2   1  UNL1       -0.5488
     31 O          64.7418   91.8750   13.3173 O.co2   1  UNL1       -0.5488
@<TRIPOS>UNITY_ATOM_ATTR
30 1
charge -1
@<TRIPOS>BOND
     1    16    17    1
     2     1    17    1
     3     1     2    1
     4     2     3    1
     5     3     4    1
     6     4     5   ar
     7     5    28    1
     8    28    29    1
     9    29    30   ar
    10    29    31   ar
    11     5     6   ar
    12     6     7   ar
    13     7     8   ar
    14     8     9   ar
    15     9    10    1
    16     9    11   ar
    17    11    12    1
    18    11    13   ar
    19    13    14   ar
    20    14    15    1
    21    17    18    1
    22    18    19    2
    23    18    20    2
    24    18    21    1
    25    21    22   ar
    26    22    23   ar
    27    23    24   ar
    28    24    25    1
    29    24    26   ar
    30    26    27   ar
    31    15     1    1
    32    27    21   ar
    33    14     4   ar
    34    13     6   ar
@<TRIPOS>MOLECULE
*****
 31 34 0 0 0
SMALL
GASTEIGER

@<TRIPOS>ATOM
      1 C          63.8129   85.7294   14.0035 C.3     1  UNL1        0.1025
      2 C          64.4926   86.8455   14.7398 C.3     1  UNL1        0.0259
      3 C          64.3578   88.2575   14.2518 C.3     1  UNL1        0.0450
      4 C          63.5433   88.5533   13.0274 C.ar    1  UNL1        0.0336
      5 C          63.2321   89.8360   12.3147 C.ar    1  UNL1       -0.0035
      6 C          62.3601   89.5126   11.1379 C.ar    1  UNL1        0.0156
      7 C          61.7440   90.3765   10.0777 C.ar    1  UNL1        0.0036
      8 C          60.9001   89.7578    9.0028 C.ar    1  UNL1        0.0321
      9 C          60.6723   88.2753    8.9882 C.ar    1  UNL1        0.1688
     10 F          59.8285   87.6566    7.9135 F       1  UNL1       -0.2017
     11 C          61.2885   87.4114   10.0485 C.ar    1  UNL1        0.1830
     12 F          61.0607   85.9288   10.0339 F       1  UNL1       -0.2003
     13 C          62.1323   88.0300   11.1233 C.ar    1  UNL1        0.0894
     14 N          62.8636   87.4372   12.2911 N.ar    1  UNL1       -0.3277
     15 C          62.9984   86.0252   12.7791 C.3     1  UNL1        0.1234
     16 C          64.3669   84.0498   15.9066 C.3     1  UNL1        0.1149
     17 N          63.9477   84.3174   14.4915 N.3     1  UNL1       -0.1535
     18 S          63.6632   83.1731   13.5644 S.O2    1  UNL1        0.0633
     19 O          64.9205   83.4760   12.8046 O.2     1  UNL1       -0.1528
     20 O          62.4058   82.8701   14.3242 O.2     1  UNL1       -0.1528
     21 C          63.3786   82.0288   12.6373 C.ar    1  UNL1        0.1223
     22 C          63.5884   82.1897   11.1608 C.ar    1  UNL1        0.0222
     23 C          63.3039   81.0454   10.2337 C.ar    1  UNL1        0.0310
     24 C          62.8096   79.7401   10.7830 C.ar    1  UNL1        0.1402
     25 F          62.5251   78.5958    9.8559 F       1  UNL1       -0.2042
     26 C          62.5998   79.5791   12.2596 C.ar    1  UNL1        0.0310
     27 C          62.8843   80.7234   13.1867 C.ar    1  UNL1        0.0222
     28 C          63.7092   91.2022   12.7095 C.3     1  UNL1        0.0691
     29 C          64.8451   91.8431   11.9685 C.2     1  UNL1        0.0548
     30 O          64.6531   92.3029   10.5537 O.co2   1  UNL1       -0.5488
     31 O          66.1728   92.0243   12.6424 O.co2   1  UNL1       -0.5488
@<TRIPOS>UNITY_ATOM_ATTR
30 1
charge -1
@<TRIPOS>BOND
     1    16    17    1
     2     1    17    1
     3     1     2    1
     4     2     3    1
     5     3     4    1
     6     4     5   ar
     7     5    28    1
     8    28    29    1
     9    29    30   ar
    10    29    31   ar
    11     5     6   ar
    12     6     7   ar
    13     7     8   ar
    14     8     9   ar
    15     9    10    1
    16     9    11   ar
    17    11    12    1
    18    11    13   ar
    19    13    14   ar
    20    14    15    1
    21    17    18    1
    22    18    19    2
    23    18    20    2
    24    18    21    1
    25    21    22   ar
    26    22    23   ar
    27    23    24   ar
    28    24    25    1
    29    24    26   ar
    30    26    27   ar
    31    15     1    1
    32    27    21   ar
    33    14     4   ar
    34    13     6   ar
@<TRIPOS>MOLECULE
*****
 31 34 0 0 0
SMALL
GASTEIGER

@<TRIPOS>ATOM
      1 C          61.9699   88.4965   11.2740 C.3     1  UNL1        0.1025
      2 C          61.8104   88.6535    9.7908 C.3     1  UNL1        0.0259
      3 C          62.0867   87.4942    8.8800 C.3     1  UNL1        0.0450
      4 C          62.5224   86.1779    9.4522 C.ar    1  UNL1        0.0336
      5 C          62.8641   84.8671    8.8079 C.ar    1  UNL1       -0.0035
      6 C          63.2347   83.9000    9.8929 C.ar    1  UNL1        0.0156
      7 C          63.6602   82.4622    9.8535 C.ar    1  UNL1        0.0036
      8 C          63.9731   81.7373   11.1290 C.ar    1  UNL1        0.0321
      9 C          63.8605   82.4504   12.4439 C.ar    1  UNL1        0.1688
     10 F          64.1734   81.7257   13.7193 F       1  UNL1       -0.2017
     11 C          63.4350   83.8883   12.4832 C.ar    1  UNL1        0.1830
     12 F          63.3224   84.6013   13.7981 F       1  UNL1       -0.2003
     13 C          63.1221   84.6131   11.2078 C.ar    1  UNL1        0.0894
     14 N          62.6819   86.0209   10.9354 N.ar    1  UNL1       -0.3277
     15 C          62.4056   87.1802   11.8463 C.3     1  UNL1        0.1234
     16 C          60.2791   90.0672   12.4674 C.3     1  UNL1        0.1149
     17 N          61.6936   89.6557   12.1850 N.3     1  UNL1       -0.1535
     18 S          62.8320   90.4036   12.8135 S.O2    1  UNL1        0.0633
     19 O          63.2235   90.9385   11.4679 O.2     1  UNL1       -0.1528
     20 O          62.4405   89.8686   14.1590 O.2     1  UNL1       -0.1528
     21 C          63.9703   91.1514   13.4419 C.ar    1  UNL1        0.1223
     22 C          64.2133   91.0452   14.9183 C.ar    1  UNL1        0.0222
     23 C          65.3516   91.7930   15.5468 C.ar    1  UNL1        0.0310
     24 C          66.2470   92.6470   14.6989 C.ar    1  UNL1        0.1402
     25 F          67.3853   93.3948   15.3274 F       1  UNL1       -0.2042
     26 C          66.0040   92.7533   13.2225 C.ar    1  UNL1        0.0310
     27 C          64.8657   92.0054   12.5940 C.ar    1  UNL1        0.0222
     28 C          62.8394   84.5748    7.3369 C.3     1  UNL1        0.0691
     29 C          61.5429   84.6239    6.5841 C.2     1  UNL1        0.0548
     30 O          60.3304   85.2388    7.2179 O.co2   1  UNL1       -0.5488
     31 O          61.4590   84.0581    5.1975 O.co2   1  UNL1       -0.5488
@<TRIPOS>UNITY_ATOM_ATTR
30 1
charge -1
@<TRIPOS>BOND
     1    16    17    1
     2     1    17    1
     3     1     2    1
     4     2     3    1
     5     3     4    1
     6     4     5   ar
     7     5    28    1
     8    28    29    1
     9    29    30   ar
    10    29    31   ar
    11     5     6   ar
    12     6     7   ar
    13     7     8   ar
    14     8     9   ar
    15     9    10    1
    16     9    11   ar
    17    11    12    1
    18    11    13   ar
    19    13    14   ar
    20    14    15    1
    21    17    18    1
    22    18    19    2
    23    18    20    2
    24    18    21    1
    25    21    22   ar
    26    22    23   ar
    27    23    24   ar
    28    24    25    1
    29    24    26   ar
    30    26    27   ar
    31    15     1    1
    32    27    21   ar
    33    14     4   ar
    34    13     6   ar
@<TRIPOS>MOLECULE
*****
 31 34 0 0 0
SMALL
GASTEIGER

@<TRIPOS>ATOM
      1 C          62.8956   85.3016   12.9451 C.3     1  UNL1        0.1025
      2 C          62.0988   85.3279   11.6746 C.3     1  UNL1        0.0259
      3 C          61.9344   86.6131   10.9189 C.3     1  UNL1        0.0450
      4 C          62.5669   87.8721   11.4337 C.ar    1  UNL1        0.0336
      5 C          62.5776   89.2772   10.9088 C.ar    1  UNL1       -0.0035
      6 C          63.3811   90.1194   11.8550 C.ar    1  UNL1        0.0156
      7 C          63.7331   91.5774   11.8495 C.ar    1  UNL1        0.0036
      8 C          64.5710   92.1509   12.9537 C.ar    1  UNL1        0.0321
      9 C          65.0568   91.2662   14.0633 C.ar    1  UNL1        0.1688
     10 F          65.8947   91.8396   15.1675 F       1  UNL1       -0.2017
     11 C          64.7048   89.8081   14.0688 C.ar    1  UNL1        0.1830
     12 F          65.1906   88.9235   15.1785 F       1  UNL1       -0.2003
     13 C          63.8669   89.2347   12.9646 C.ar    1  UNL1        0.0894
     14 N          63.3637   87.8458   12.7043 N.ar    1  UNL1       -0.3277
     15 C          63.5281   86.5606   13.4600 C.3     1  UNL1        0.1234
     16 C          63.3062   84.0424   15.1803 C.3     1  UNL1        0.1149
     17 N          63.0600   84.0164   13.7009 N.3     1  UNL1       -0.1535
     18 S          62.9783   82.7050   12.9772 S.O2    1  UNL1        0.0633
     19 O          61.8350   82.2914   13.8557 O.2     1  UNL1       -0.1528
     20 O          64.1216   83.1186   12.0987 O.2     1  UNL1       -0.1528
     21 C          62.8965   81.3937   12.2535 C.ar    1  UNL1        0.1223
     22 C          62.5512   80.1425   13.0052 C.ar    1  UNL1        0.0222
     23 C          62.4694   78.8312   12.2814 C.ar    1  UNL1        0.0310
     24 C          62.7331   78.7711   10.8060 C.ar    1  UNL1        0.1402
     25 F          62.6513   77.4598   10.0823 F       1  UNL1       -0.2042
     26 C          63.0784   80.0224   10.0543 C.ar    1  UNL1        0.0310
     27 C          63.1602   81.3337   10.7780 C.ar    1  UNL1        0.0222
     28 C          61.9033   89.7561    9.6574 C.3     1  UNL1        0.0691
     29 C          60.4058   89.7837    9.5759 C.2     1  UNL1        0.0548
     30 O          59.6188   90.6414   10.5221 O.co2   1  UNL1       -0.5488
     31 O          59.6952   88.9536    8.5483 O.co2   1  UNL1       -0.5488
@<TRIPOS>UNITY_ATOM_ATTR
30 1
charge -1
@<TRIPOS>BOND
     1    16    17    1
     2     1    17    1
     3     1     2    1
     4     2     3    1
     5     3     4    1
     6     4     5   ar
     7     5    28    1
     8    28    29    1
     9    29    30   ar
    10    29    31   ar
    11     5     6   ar
    12     6     7   ar
    13     7     8   ar
    14     8     9   ar
    15     9    10    1
    16     9    11   ar
    17    11    12    1
    18    11    13   ar
    19    13    14   ar
    20    14    15    1
    21    17    18    1
    22    18    19    2
    23    18    20    2
    24    18    21    1
    25    21    22   ar
    26    22    23   ar
    27    23    24   ar
    28    24    25    1
    29    24    26   ar
    30    26    27   ar
    31    15     1    1
    32    27    21   ar
    33    14     4   ar
    34    13     6   ar
@<TRIPOS>MOLECULE
*****
 31 34 0 0 0
SMALL
GASTEIGER

@<TRIPOS>ATOM
      1 C          63.4968   86.9962   13.8221 C.3     1  UNL1        0.1025
      2 C          62.5534   86.8874   12.6610 C.3     1  UNL1        0.0259
      3 C          62.4062   88.0333   11.7045 C.3     1  UNL1        0.0450
      4 C          63.2023   89.2881   11.9089 C.ar    1  UNL1        0.0336
      5 C          63.2670   90.5727   11.1371 C.ar    1  UNL1       -0.0035
      6 C          64.2504   91.4754   11.8212 C.ar    1  UNL1        0.0156
      7 C          64.7216   92.8652   11.5107 C.ar    1  UNL1        0.0036
      8 C          65.7358   93.5284   12.3949 C.ar    1  UNL1        0.0321
      9 C          66.2788   92.8017   13.5895 C.ar    1  UNL1        0.1688
     10 F          67.2930   93.4648   14.4736 F       1  UNL1       -0.2017
     11 C          65.8076   91.4118   13.9000 C.ar    1  UNL1        0.1830
     12 F          66.3507   90.6852   15.0946 F       1  UNL1       -0.2003
     13 C          64.7934   90.7487   13.0158 C.ar    1  UNL1        0.0894
     14 N          64.1457   89.3969   13.0700 N.ar    1  UNL1       -0.3277
     15 C          64.2929   88.2509   14.0266 C.3     1  UNL1        0.1234
     16 C          64.0726   86.1046   16.1936 C.3     1  UNL1        0.1149
     17 N          63.6441   85.8502   14.7788 N.3     1  UNL1       -0.1535
     18 S          63.3628   84.4499   14.3206 S.O2    1  UNL1        0.0633
     19 O          64.6952   84.4073   13.6328 O.2     1  UNL1       -0.1528
     20 O          62.0305   84.4924   15.0084 O.2     1  UNL1       -0.1528
     21 C          63.0816   83.0495   13.8624 C.ar    1  UNL1        0.1223
     22 C          63.8583   82.4637   12.7208 C.ar    1  UNL1        0.0222
     23 C          63.5771   81.0634   12.2626 C.ar    1  UNL1        0.0310
     24 C          62.5191   80.2488   12.9461 C.ar    1  UNL1        0.1402
     25 F          62.2379   78.8485   12.4879 F       1  UNL1       -0.2042
     26 C          61.7424   80.8346   14.0878 C.ar    1  UNL1        0.0310
     27 C          62.0236   82.2350   14.5460 C.ar    1  UNL1        0.0222
     28 C          62.4856   90.8975    9.8986 C.3     1  UNL1        0.0691
     29 C          61.0904   90.3720    9.7327 C.2     1  UNL1        0.0548
     30 O          59.9893   90.8749   10.6185 O.co2   1  UNL1       -0.5488
     31 O          60.7966   89.3436    8.6811 O.co2   1  UNL1       -0.5488
@<TRIPOS>UNITY_ATOM_ATTR
30 1
charge -1
@<TRIPOS>BOND
     1    16    17    1
     2     1    17    1
     3     1     2    1
     4     2     3    1
     5     3     4    1
     6     4     5   ar
     7     5    28    1
     8    28    29    1
     9    29    30   ar
    10    29    31   ar
    11     5     6   ar
    12     6     7   ar
    13     7     8   ar
    14     8     9   ar
    15     9    10    1
    16     9    11   ar
    17    11    12    1
    18    11    13   ar
    19    13    14   ar
    20    14    15    1
    21    17    18    1
    22    18    19    2
    23    18    20    2
    24    18    21    1
    25    21    22   ar
    26    22    23   ar
    27    23    24   ar
    28    24    25    1
    29    24    26   ar
    30    26    27   ar
    31    15     1    1
    32    27    21   ar
    33    14     4   ar
    34    13     6   ar
