@<TRIPOS>MOLECULE
*****
 28 30 0 0 0
SMALL
GASTEIGER

@<TRIPOS>ATOM
      1 C          62.5736   89.3475   10.9556 C.ar    1  UNL1        0.0070
      2 C          62.8696   88.8989   12.3560 C.ar    1  UNL1       -0.0017
      3 C          63.8210   89.6838   13.2096 C.ar    1  UNL1       -0.0001
      4 C          64.4764   90.9173   12.6629 C.ar    1  UNL1        0.0030
      5 C          65.4278   91.7023   13.5166 C.ar    1  UNL1        0.0369
      6 C          66.0832   92.9358   12.9699 C.ar    1  UNL1        0.1390
      7 C          65.7871   93.3844   11.5695 C.ar    1  UNL1        0.0369
      8 C          64.8358   92.5995   10.7158 C.ar    1  UNL1        0.0031
      9 C          64.1804   91.3660   11.2626 C.ar    1  UNL1       -0.0000
     10 C          63.2290   90.5811   10.4089 C.ar    1  UNL1       -0.0017
     11 C          61.6222   88.5626   10.1019 C.3     1  UNL1        0.1426
     12 O          62.7739   88.0515    9.2882 O.3     1  UNL1       -0.3770
     13 H          62.5099   87.9906    8.3568 H       1  UNL1        0.2112
     14 C          60.4704   89.0737   10.9156 C.ar    1  UNL1        0.1019
     15 C          59.9468   90.4794   10.9169 C.ar    1  UNL1        0.1404
     16 N          58.7928   90.5433   11.8731 N.ar    1  UNL1       -0.1276
     17 N          58.6032   89.1771   12.4628 N.ar    1  UNL1       -0.0674
     18 N          59.6400   88.2689   11.8711 N.ar    1  UNL1       -0.2579
     19 H          59.7553   87.3125   12.0741 H       1  UNL1        0.1904
     20 C          60.6451   86.2805    9.3356 C.3     1  UNL1        0.0031
     21 C          60.6708   87.7778    9.2482 C.3     1  UNL1        0.0340
     22 C          59.7450   88.4902    8.3072 C.3     1  UNL1        0.0031
     23 O          67.0346   93.7207   13.8236 O.3     1  UNL1       -0.4666
     24 C          67.0886   93.4794   15.3031 C.3     1  UNL1        0.3081
     25 C          68.3370   92.9318   15.9286 C.3     1  UNL1        0.4380
     26 F          69.5855   92.3841   16.5542 F       1  UNL1       -0.1663
     27 F          68.8567   94.3267   16.1129 F       1  UNL1       -0.1663
     28 F          67.8174   91.5368   15.7444 F       1  UNL1       -0.1663
@<TRIPOS>BOND
     1    20    21    1
     2    21    22    1
     3    21    11    1
     4    11    12    1
     5    11     1    1
     6     1     2   ar
     7     2     3   ar
     8     3     4   ar
     9     4     5   ar
    10     5     6   ar
    11     6    23    1
    12    23    24    1
    13    24    25    1
    14    25    26    1
    15    25    27    1
    16    25    28    1
    17     6     7   ar
    18     7     8   ar
    19     8     9   ar
    20     9    10   ar
    21    11    14    1
    22    14    15   ar
    23    15    16   ar
    24    16    17   ar
    25    17    18   ar
    26    10     1   ar
    27    18    14   ar
    28     9     4   ar
    29    12    13    1
    30    18    19    1
@<TRIPOS>MOLECULE
*****
 28 30 0 0 0
SMALL
GASTEIGER

@<TRIPOS>ATOM
      1 C          63.3675   84.4488   14.0972 C.ar    1  UNL1        0.0070
      2 C          64.1646   84.9659   15.2578 C.ar    1  UNL1       -0.0017
      3 C          64.5185   86.4215   15.3355 C.ar    1  UNL1       -0.0001
      4 C          64.0752   87.3599   14.2525 C.ar    1  UNL1        0.0030
      5 C          64.4292   88.8155   14.3302 C.ar    1  UNL1        0.0369
      6 C          63.9859   89.7540   13.2472 C.ar    1  UNL1        0.1390
      7 C          63.1888   89.2368   12.0865 C.ar    1  UNL1        0.0369
      8 C          62.8349   87.7812   12.0088 C.ar    1  UNL1        0.0031
      9 C          63.2781   86.8428   13.0918 C.ar    1  UNL1       -0.0000
     10 C          62.9242   85.3872   13.0142 C.ar    1  UNL1       -0.0017
     11 C          63.0135   82.9932   14.0195 C.3     1  UNL1        0.1426
     12 O          62.5140   83.0391   15.4331 O.3     1  UNL1       -0.3770
     13 H          62.7379   82.2090   15.8823 H       1  UNL1        0.2112
     14 C          63.5131   82.9472   12.6059 C.ar    1  UNL1        0.1019
     15 C          62.6781   82.7071   11.3831 C.ar    1  UNL1        0.1404
     16 N          63.5843   82.7448   10.1883 N.ar    1  UNL1       -0.1276
     17 N          64.9793   83.0082   10.6727 N.ar    1  UNL1       -0.0674
     18 N          64.9353   83.1334   12.1668 N.ar    1  UNL1       -0.2579
     19 H          65.7047   83.3071   12.7559 H       1  UNL1        0.1904
     20 C          63.7338   80.5158   13.7136 C.3     1  UNL1        0.0031
     21 C          62.6597   81.5376   13.9418 C.3     1  UNL1        0.0340
     22 C          61.2316   81.1039   14.0922 C.3     1  UNL1        0.0031
     23 O          64.3398   91.2095   13.3248 O.3     1  UNL1       -0.4666
     24 C          65.4721   91.6605   14.1992 C.3     1  UNL1        0.3081
     25 C          66.8761   91.6540   13.6712 C.3     1  UNL1        0.4380
     26 F          68.2800   91.6474   13.1432 F       1  UNL1       -0.1663
     27 F          67.3690   91.1324   14.9884 F       1  UNL1       -0.1663
     28 F          66.3831   92.1755   12.3541 F       1  UNL1       -0.1663
@<TRIPOS>BOND
     1    20    21    1
     2    21    22    1
     3    21    11    1
     4    11    12    1
     5    11     1    1
     6     1     2   ar
     7     2     3   ar
     8     3     4   ar
     9     4     5   ar
    10     5     6   ar
    11     6    23    1
    12    23    24    1
    13    24    25    1
    14    25    26    1
    15    25    27    1
    16    25    28    1
    17     6     7   ar
    18     7     8   ar
    19     8     9   ar
    20     9    10   ar
    21    11    14    1
    22    14    15   ar
    23    15    16   ar
    24    16    17   ar
    25    17    18   ar
    26    10     1   ar
    27    18    14   ar
    28     9     4   ar
    29    12    13    1
    30    18    19    1
@<TRIPOS>MOLECULE
*****
 28 30 0 0 0
SMALL
GASTEIGER

@<TRIPOS>ATOM
      1 C          64.9794   91.1587   13.6345 C.ar    1  UNL1        0.0070
      2 C          64.7842   89.7904   14.2173 C.ar    1  UNL1       -0.0017
      3 C          63.8937   88.8009   13.5262 C.ar    1  UNL1       -0.0001
      4 C          63.1983   89.1796   12.2522 C.ar    1  UNL1        0.0030
      5 C          62.3078   88.1900   11.5610 C.ar    1  UNL1        0.0369
      6 C          61.6124   88.5687   10.2870 C.ar    1  UNL1        0.1390
      7 C          61.8076   89.9370    9.7042 C.ar    1  UNL1        0.0369
      8 C          62.6982   90.9265   10.3953 C.ar    1  UNL1        0.0031
      9 C          63.3935   90.5478   11.6693 C.ar    1  UNL1       -0.0000
     10 C          64.2840   91.5374   12.3605 C.ar    1  UNL1       -0.0017
     11 C          65.8699   92.1483   14.3257 C.3     1  UNL1        0.1426
     12 O          64.9659   92.1260   15.5224 O.3     1  UNL1       -0.3770
     13 H          64.9100   93.0169   15.9020 H       1  UNL1        0.2112
     14 C          66.7739   92.1705   13.1289 C.ar    1  UNL1        0.1019
     15 C          66.4552   92.7765   11.7943 C.ar    1  UNL1        0.1404
     16 N          67.6397   92.5712   10.8971 N.ar    1  UNL1       -0.1276
     17 N          68.6905   91.8383   11.6773 N.ar    1  UNL1       -0.0674
     18 N          68.1555   91.5907   13.0566 N.ar    1  UNL1       -0.2579
     19 H          68.6281   91.1287   13.7863 H       1  UNL1        0.1904
     20 C          67.3647   92.8014   16.3478 C.3     1  UNL1        0.0031
     21 C          66.7605   93.1379   15.0167 C.3     1  UNL1        0.0340
     22 C          67.0468   94.4640   14.3767 C.3     1  UNL1        0.0031
     23 O          60.7219   87.5791    9.5959 O.3     1  UNL1       -0.4666
     24 C          61.1065   86.1300    9.5474 C.3     1  UNL1        0.3081
     25 C          62.2289   85.6813    8.6593 C.3     1  UNL1        0.4380
     26 F          63.3513   85.2325    7.7713 F       1  UNL1       -0.1663
     27 F          63.0480   85.3380    9.8681 F       1  UNL1       -0.1663
     28 F          61.4098   86.0245    7.4505 F       1  UNL1       -0.1663
@<TRIPOS>BOND
     1    20    21    1
     2    21    22    1
     3    21    11    1
     4    11    12    1
     5    11     1    1
     6     1     2   ar
     7     2     3   ar
     8     3     4   ar
     9     4     5   ar
    10     5     6   ar
    11     6    23    1
    12    23    24    1
    13    24    25    1
    14    25    26    1
    15    25    27    1
    16    25    28    1
    17     6     7   ar
    18     7     8   ar
    19     8     9   ar
    20     9    10   ar
    21    11    14    1
    22    14    15   ar
    23    15    16   ar
    24    16    17   ar
    25    17    18   ar
    26    10     1   ar
    27    18    14   ar
    28     9     4   ar
    29    12    13    1
    30    18    19    1
@<TRIPOS>MOLECULE
*****
 28 30 0 0 0
SMALL
GASTEIGER

@<TRIPOS>ATOM
      1 C          61.8895   89.5885   10.5249 C.ar    1  UNL1        0.0070
      2 C          61.9729   89.1715   11.9633 C.ar    1  UNL1       -0.0017
      3 C          62.9626   89.8291   12.8787 C.ar    1  UNL1       -0.0001
      4 C          63.8690   90.9038   12.3556 C.ar    1  UNL1        0.0030
      5 C          64.8588   91.5614   13.2710 C.ar    1  UNL1        0.0369
      6 C          65.7652   92.6360   12.7479 C.ar    1  UNL1        0.1390
      7 C          65.6819   93.0530   11.3094 C.ar    1  UNL1        0.0369
      8 C          64.6921   92.3953   10.3940 C.ar    1  UNL1        0.0031
      9 C          63.7857   91.3207   10.9171 C.ar    1  UNL1       -0.0000
     10 C          62.7959   90.6631   10.0018 C.ar    1  UNL1       -0.0017
     11 C          60.8997   88.9309    9.6095 C.3     1  UNL1        0.1426
     12 O          60.3548   90.2764    9.2320 O.3     1  UNL1       -0.3770
     13 H          59.3932   90.2160    9.1198 H       1  UNL1        0.2112
     14 C          61.4446   87.5853    9.9870 C.ar    1  UNL1        0.1019
     15 C          62.4163   86.7710    9.1853 C.ar    1  UNL1        0.1404
     16 N          62.6858   85.5002    9.9354 N.ar    1  UNL1       -0.1276
     17 N          61.8806   85.5292   11.2007 N.ar    1  UNL1       -0.0674
     18 N          61.1136   86.8178   11.2326 N.ar    1  UNL1       -0.2579
     19 H          60.5005   87.1088   11.9459 H       1  UNL1        0.1904
     20 C          59.2219   87.0093    9.1172 C.3     1  UNL1        0.0031
     21 C          59.9100   88.2732    8.6941 C.3     1  UNL1        0.0340
     22 C          59.6084   88.8795    7.3556 C.3     1  UNL1        0.0031
     23 O          66.7550   93.2936   13.6632 O.3     1  UNL1       -0.4666
     24 C          66.7411   92.9828   15.1306 C.3     1  UNL1        0.3081
     25 C          68.0221   92.6602   15.8411 C.3     1  UNL1        0.4380
     26 F          69.3032   92.3376   16.5516 F       1  UNL1       -0.1663
     27 F          67.8236   91.2046   15.5380 F       1  UNL1       -0.1663
     28 F          68.2206   94.1157   16.1442 F       1  UNL1       -0.1663
@<TRIPOS>BOND
     1    20    21    1
     2    21    22    1
     3    21    11    1
     4    11    12    1
     5    11     1    1
     6     1     2   ar
     7     2     3   ar
     8     3     4   ar
     9     4     5   ar
    10     5     6   ar
    11     6    23    1
    12    23    24    1
    13    24    25    1
    14    25    26    1
    15    25    27    1
    16    25    28    1
    17     6     7   ar
    18     7     8   ar
    19     8     9   ar
    20     9    10   ar
    21    11    14    1
    22    14    15   ar
    23    15    16   ar
    24    16    17   ar
    25    17    18   ar
    26    10     1   ar
    27    18    14   ar
    28     9     4   ar
    29    12    13    1
    30    18    19    1
@<TRIPOS>MOLECULE
*****
 28 30 0 0 0
SMALL
GASTEIGER

@<TRIPOS>ATOM
      1 C          61.9130   89.4721   10.3432 C.ar    1  UNL1        0.0070
      2 C          62.5250   90.7837    9.9495 C.ar    1  UNL1       -0.0017
      3 C          63.5212   91.4478   10.8531 C.ar    1  UNL1       -0.0001
      4 C          63.9054   90.8002   12.1504 C.ar    1  UNL1        0.0030
      5 C          64.9017   91.4644   13.0540 C.ar    1  UNL1        0.0369
      6 C          65.2859   90.8168   14.3513 C.ar    1  UNL1        0.1390
      7 C          64.6739   89.5051   14.7450 C.ar    1  UNL1        0.0369
      8 C          63.6776   88.8411   13.8414 C.ar    1  UNL1        0.0031
      9 C          63.2934   89.4886   12.5441 C.ar    1  UNL1       -0.0000
     10 C          62.2972   88.8246   11.6405 C.ar    1  UNL1       -0.0017
     11 C          60.9167   88.8080    9.4396 C.3     1  UNL1        0.1426
     12 O          60.3824   90.1517    9.0410 O.3     1  UNL1       -0.3770
     13 H          59.4202   90.0974    8.9309 H       1  UNL1        0.2112
     14 C          61.4510   87.4643    9.8382 C.ar    1  UNL1        0.1019
     15 C          62.4362   86.6415    9.0619 C.ar    1  UNL1        0.1404
     16 N          62.6880   85.3761    9.8271 N.ar    1  UNL1       -0.1276
     17 N          61.8584   85.4167   11.0762 N.ar    1  UNL1       -0.0674
     18 N          61.0939   86.7073   11.0830 N.ar    1  UNL1       -0.2579
     19 H          60.4677   87.0052   11.7819 H       1  UNL1        0.1904
     20 C          59.5103   88.8078    7.2551 C.3     1  UNL1        0.0031
     21 C          59.9205   88.1438    8.5361 C.3     1  UNL1        0.0340
     22 C          59.3343   86.8156    8.9135 C.3     1  UNL1        0.0031
     23 O          66.2822   91.4809   15.2549 O.3     1  UNL1       -0.4666
     24 C          67.5311   92.0820   14.6812 C.3     1  UNL1        0.3081
     25 C          68.2009   93.2281   15.3795 C.3     1  UNL1        0.4380
     26 F          68.8708   94.3743   16.0777 F       1  UNL1       -0.1663
     27 F          69.2034   92.2819   15.9709 F       1  UNL1       -0.1663
     28 F          67.1985   94.1743   14.7881 F       1  UNL1       -0.1663
@<TRIPOS>BOND
     1    20    21    1
     2    21    22    1
     3    21    11    1
     4    11    12    1
     5    11     1    1
     6     1     2   ar
     7     2     3   ar
     8     3     4   ar
     9     4     5   ar
    10     5     6   ar
    11     6    23    1
    12    23    24    1
    13    24    25    1
    14    25    26    1
    15    25    27    1
    16    25    28    1
    17     6     7   ar
    18     7     8   ar
    19     8     9   ar
    20     9    10   ar
    21    11    14    1
    22    14    15   ar
    23    15    16   ar
    24    16    17   ar
    25    17    18   ar
    26    10     1   ar
    27    18    14   ar
    28     9     4   ar
    29    12    13    1
    30    18    19    1
@<TRIPOS>MOLECULE
*****
 28 30 0 0 0
SMALL
GASTEIGER

@<TRIPOS>ATOM
      1 C          63.5977   90.0136   12.6293 C.ar    1  UNL1        0.0070
      2 C          62.9553   90.8495   11.5622 C.ar    1  UNL1       -0.0017
      3 C          62.1209   90.1977   10.4998 C.ar    1  UNL1       -0.0001
      4 C          61.9288   88.7100   10.5044 C.ar    1  UNL1        0.0030
      5 C          61.0943   88.0582    9.4419 C.ar    1  UNL1        0.0369
      6 C          60.9023   86.5706    9.4465 C.ar    1  UNL1        0.1390
      7 C          61.5447   85.7347   10.5137 C.ar    1  UNL1        0.0369
      8 C          62.3791   86.3865   11.5761 C.ar    1  UNL1        0.0031
      9 C          62.5712   87.8742   11.5715 C.ar    1  UNL1       -0.0000
     10 C          63.4056   88.5260   12.6339 C.ar    1  UNL1       -0.0017
     11 C          64.4322   90.6654   13.6918 C.3     1  UNL1        0.1426
     12 O          64.9831   91.6194   12.6739 O.3     1  UNL1       -0.3770
     13 H          65.9189   91.7902   12.8641 H       1  UNL1        0.2112
     14 C          63.8812   89.7114   14.7097 C.ar    1  UNL1        0.1019
     15 C          64.4622   88.3770   15.0729 C.ar    1  UNL1        0.1404
     16 N          63.5925   87.7651   16.1309 N.ar    1  UNL1       -0.1276
     17 N          62.4739   88.7213   16.4216 N.ar    1  UNL1       -0.0674
     18 N          62.6523   89.9242   15.5433 N.ar    1  UNL1       -0.2579
     19 H          62.0659   90.7145   15.5183 H       1  UNL1        0.1904
     20 C          64.6092   91.9140   15.9633 C.3     1  UNL1        0.0031
     21 C          65.2666   91.3171   14.7543 C.3     1  UNL1        0.0340
     22 C          66.7585   91.3720   14.6079 C.3     1  UNL1        0.0031
     23 O          60.0678   85.9188    8.3841 O.3     1  UNL1       -0.4666
     24 C          60.6043   85.7779    6.9903 C.3     1  UNL1        0.3081
     25 C          61.7654   84.8669    6.7221 C.3     1  UNL1        0.4380
     26 F          62.9265   83.9560    6.4539 F       1  UNL1       -0.1663
     27 F          62.6510   85.7529    7.5471 F       1  UNL1       -0.1663
     28 F          60.8797   83.9810    5.8971 F       1  UNL1       -0.1663
@<TRIPOS>BOND
     1    20    21    1
     2    21    22    1
     3    21    11    1
     4    11    12    1
     5    11     1    1
     6     1     2   ar
     7     2     3   ar
     8     3     4   ar
     9     4     5   ar
    10     5     6   ar
    11     6    23    1
    12    23    24    1
    13    24    25    1
    14    25    26    1
    15    25    27    1
    16    25    28    1
    17     6     7   ar
    18     7     8   ar
    19     8     9   ar
    20     9    10   ar
    21    11    14    1
    22    14    15   ar
    23    15    16   ar
    24    16    17   ar
    25    17    18   ar
    26    10     1   ar
    27    18    14   ar
    28     9     4   ar
    29    12    13    1
    30    18    19    1
@<TRIPOS>MOLECULE
*****
 28 30 0 0 0
SMALL
GASTEIGER

@<TRIPOS>ATOM
      1 C          64.5484   91.0056   12.8752 C.ar    1  UNL1        0.0070
      2 C          64.1716   91.8649   11.7050 C.ar    1  UNL1       -0.0017
      3 C          63.2771   91.3198   10.6314 C.ar    1  UNL1       -0.0001
      4 C          62.7594   89.9153   10.7280 C.ar    1  UNL1        0.0030
      5 C          61.8648   89.3702    9.6544 C.ar    1  UNL1        0.0369
      6 C          61.3471   87.9657    9.7510 C.ar    1  UNL1        0.1390
      7 C          61.7239   87.1063   10.9213 C.ar    1  UNL1        0.0369
      8 C          62.6184   87.6514   11.9949 C.ar    1  UNL1        0.0031
      9 C          63.1361   89.0559   11.8982 C.ar    1  UNL1       -0.0000
     10 C          64.0307   89.6011   12.9718 C.ar    1  UNL1       -0.0017
     11 C          65.4430   91.5507   13.9489 C.3     1  UNL1        0.1426
     12 O          64.7858   90.6510   14.9532 O.3     1  UNL1       -0.3770
     13 H          64.7081   91.1154   15.8013 H       1  UNL1        0.2112
     14 C          66.1001   92.4503   12.9445 C.ar    1  UNL1        0.1019
     15 C          67.0280   92.0184   11.8480 C.ar    1  UNL1        0.1404
     16 N          67.4461   93.2411   11.0861 N.ar    1  UNL1       -0.1276
     17 N          66.7765   94.4287   11.7118 N.ar    1  UNL1       -0.0674
     18 N          65.9447   93.9399   12.8604 N.ar    1  UNL1       -0.2579
     19 H          65.3934   94.4987   13.4546 H       1  UNL1        0.1904
     20 C          67.8275   92.0122   14.8712 C.3     1  UNL1        0.0031
     21 C          66.3375   92.0958   15.0224 C.3     1  UNL1        0.0340
     22 C          65.7420   92.7245   16.2473 C.3     1  UNL1        0.0031
     23 O          60.4525   87.4206    8.6774 O.3     1  UNL1       -0.4666
     24 C          60.4374   85.9485    8.3896 C.3     1  UNL1        0.3081
     25 C          61.3703   85.3751    7.3645 C.3     1  UNL1        0.4380
     26 F          62.3033   84.8016    6.3395 F       1  UNL1       -0.1663
     27 F          62.5423   85.9154    8.1290 F       1  UNL1       -0.1663
     28 F          60.1983   84.8348    6.6001 F       1  UNL1       -0.1663
@<TRIPOS>BOND
     1    20    21    1
     2    21    22    1
     3    21    11    1
     4    11    12    1
     5    11     1    1
     6     1     2   ar
     7     2     3   ar
     8     3     4   ar
     9     4     5   ar
    10     5     6   ar
    11     6    23    1
    12    23    24    1
    13    24    25    1
    14    25    26    1
    15    25    27    1
    16    25    28    1
    17     6     7   ar
    18     7     8   ar
    19     8     9   ar
    20     9    10   ar
    21    11    14    1
    22    14    15   ar
    23    15    16   ar
    24    16    17   ar
    25    17    18   ar
    26    10     1   ar
    27    18    14   ar
    28     9     4   ar
    29    12    13    1
    30    18    19    1
@<TRIPOS>MOLECULE
*****
 28 30 0 0 0
SMALL
GASTEIGER

@<TRIPOS>ATOM
      1 C          62.5470   89.4633   10.9547 C.ar    1  UNL1        0.0070
      2 C          63.0980   90.7169   10.3425 C.ar    1  UNL1       -0.0017
      3 C          63.9765   91.6236   11.1524 C.ar    1  UNL1       -0.0001
      4 C          64.3040   91.2768   12.5745 C.ar    1  UNL1        0.0030
      5 C          65.1826   92.1836   13.3844 C.ar    1  UNL1        0.0369
      6 C          65.5102   91.8367   14.8065 C.ar    1  UNL1        0.1390
      7 C          64.9592   90.5830   15.4187 C.ar    1  UNL1        0.0369
      8 C          64.0807   89.6762   14.6088 C.ar    1  UNL1        0.0031
      9 C          63.7531   90.0231   13.1867 C.ar    1  UNL1       -0.0000
     10 C          62.8746   89.1164   12.3768 C.ar    1  UNL1       -0.0017
     11 C          61.6684   88.5564   10.1448 C.3     1  UNL1        0.1426
     12 O          62.8522   88.1463    9.3199 O.3     1  UNL1       -0.3770
     13 H          62.5781   88.0296    8.3967 H       1  UNL1        0.2112
     14 C          60.4847   88.9666   10.9697 C.ar    1  UNL1        0.1019
     15 C          59.8332   90.3177   10.9662 C.ar    1  UNL1        0.1404
     16 N          58.6904   90.2838   11.9374 N.ar    1  UNL1       -0.1276
     17 N          58.6357   88.9117   12.5411 N.ar    1  UNL1       -0.0674
     18 N          59.7446   88.0977   11.9431 N.ar    1  UNL1       -0.2579
     19 H          59.9506   87.1580   12.1526 H       1  UNL1        0.1904
     20 C          59.8258   88.2293    8.3427 C.3     1  UNL1        0.0031
     21 C          60.7899   87.6497    9.3350 C.3     1  UNL1        0.0340
     22 C          60.8754   86.1632    9.5173 C.3     1  UNL1        0.0031
     23 O          66.3887   92.7434   15.6164 O.3     1  UNL1       -0.4666
     24 C          67.5845   93.3911   14.9833 C.3     1  UNL1        0.3081
     25 C          68.6582   92.5438   14.3675 C.3     1  UNL1        0.4380
     26 F          69.7319   91.6966   13.7517 F       1  UNL1       -0.1663
     27 F          69.3085   92.3918   15.7106 F       1  UNL1       -0.1663
     28 F          68.0078   92.6958   13.0244 F       1  UNL1       -0.1663
@<TRIPOS>BOND
     1    20    21    1
     2    21    22    1
     3    21    11    1
     4    11    12    1
     5    11     1    1
     6     1     2   ar
     7     2     3   ar
     8     3     4   ar
     9     4     5   ar
    10     5     6   ar
    11     6    23    1
    12    23    24    1
    13    24    25    1
    14    25    26    1
    15    25    27    1
    16    25    28    1
    17     6     7   ar
    18     7     8   ar
    19     8     9   ar
    20     9    10   ar
    21    11    14    1
    22    14    15   ar
    23    15    16   ar
    24    16    17   ar
    25    17    18   ar
    26    10     1   ar
    27    18    14   ar
    28     9     4   ar
    29    12    13    1
    30    18    19    1
@<TRIPOS>MOLECULE
*****
 28 30 0 0 0
SMALL
GASTEIGER

@<TRIPOS>ATOM
      1 C          65.8109   91.8973   13.2576 C.ar    1  UNL1        0.0070
      2 C          65.5542   92.8071   12.0930 C.ar    1  UNL1       -0.0017
      3 C          64.5325   92.4333   11.0604 C.ar    1  UNL1       -0.0001
      4 C          63.7675   91.1499   11.1924 C.ar    1  UNL1        0.0030
      5 C          62.7457   90.7762   10.1597 C.ar    1  UNL1        0.0369
      6 C          61.9806   89.4927   10.2917 C.ar    1  UNL1        0.1390
      7 C          62.2374   88.5829   11.4564 C.ar    1  UNL1        0.0369
      8 C          63.2591   88.9566   12.4891 C.ar    1  UNL1        0.0031
      9 C          64.0242   90.2401   12.3570 C.ar    1  UNL1       -0.0000
     10 C          65.0459   90.6138   13.3896 C.ar    1  UNL1       -0.0017
     11 C          66.8327   92.2710   14.2903 C.3     1  UNL1        0.1426
     12 O          67.8949   92.2932   13.2314 O.3     1  UNL1       -0.3770
     13 H          68.7233   91.9455   13.5971 H       1  UNL1        0.2112
     14 C          65.7706   92.2489   15.3492 C.ar    1  UNL1        0.1019
     15 C          64.5819   91.3347   15.3867 C.ar    1  UNL1        0.1404
     16 N          63.7872   91.6579   16.6173 N.ar    1  UNL1       -0.1276
     17 N          64.4848   92.7718   17.3403 N.ar    1  UNL1       -0.0674
     18 N          65.7105   93.1370   16.5566 N.ar    1  UNL1       -0.2579
     19 H          66.3614   93.8368   16.7931 H       1  UNL1        0.1904
     20 C          68.4193   91.5949   16.2334 C.3     1  UNL1        0.0031
     21 C          67.8544   92.6447   15.3230 C.3     1  UNL1        0.0340
     22 C          68.3113   94.0683   15.4453 C.3     1  UNL1        0.0031
     23 O          60.9589   89.1190    9.2591 O.3     1  UNL1       -0.4666
     24 C          60.0930   87.9112    9.4635 C.3     1  UNL1        0.3081
     25 C          60.1312   86.7848    8.4737 C.3     1  UNL1        0.4380
     26 F          60.1694   85.6584    7.4839 F       1  UNL1       -0.1663
     27 F          58.6432   86.8786    8.3096 F       1  UNL1       -0.1663
     28 F          61.6192   86.6910    8.6379 F       1  UNL1       -0.1663
@<TRIPOS>BOND
     1    20    21    1
     2    21    22    1
     3    21    11    1
     4    11    12    1
     5    11     1    1
     6     1     2   ar
     7     2     3   ar
     8     3     4   ar
     9     4     5   ar
    10     5     6   ar
    11     6    23    1
    12    23    24    1
    13    24    25    1
    14    25    26    1
    15    25    27    1
    16    25    28    1
    17     6     7   ar
    18     7     8   ar
    19     8     9   ar
    20     9    10   ar
    21    11    14    1
    22    14    15   ar
    23    15    16   ar
    24    16    17   ar
    25    17    18   ar
    26    10     1   ar
    27    18    14   ar
    28     9     4   ar
    29    12    13    1
    30    18    19    1
