@<TRIPOS>MOLECULE
*****
 22 25 0 0 0
SMALL
GASTEIGER

@<TRIPOS>ATOM
      1 O          64.0578   85.8789   13.6522 O.2     1  UNL1       -0.2448
      2 C          63.1041   85.4524   12.5760 C.2     1  UNL1        0.3428
      3 C          63.2169   84.0835   11.9732 C.2     1  UNL1        0.0966
      4 C          63.7726   83.7600   10.6180 C.2     1  UNL1        0.1049
      5 N          63.6929   82.2743   10.4270 N.2     1  UNL1       -0.2476
      6 C          63.0879   81.6797   11.6642 C.2     1  UNL1        0.0644
      7 C          62.7670   80.2645   12.0440 C.3     1  UNL1        0.0718
      8 C          62.1519   79.9675   13.3794 C.2     1  UNL1       -0.0189
      9 C          61.8577   81.0857   14.3350 C.2     1  UNL1        0.0073
     10 C          62.1786   82.5008   13.9552 C.2     1  UNL1        0.0587
     11 CL         61.8844   83.6190   14.9108 Cl      1  UNL1       -0.0822
     12 C          62.7937   82.7978   12.6198 C.2     1  UNL1        0.0322
     13 O          62.0373   86.3948   12.1026 O.3     1  UNL1       -0.4454
     14 C          62.2119   87.1373   10.8110 C.3     1  UNL1        0.2087
     15 C          61.4395   86.7189    9.5952 C.3     1  UNL1        0.0445
     16 C          62.0827   85.8403    8.5636 C.3     1  UNL1        0.0210
     17 C          61.3102   85.4219    7.3478 C.3     1  UNL1        0.0722
     18 N          59.8945   85.8822    7.1635 N.3     1  UNL1       -0.2727
     19 C          59.2513   86.7608    8.1951 C.3     1  UNL1        0.0722
     20 C          60.0238   87.1792    9.4110 C.3     1  UNL1        0.0210
     21 C          60.2778   86.1374    7.8461 C.3     1  UNL1        0.0722
     22 C          60.9762   86.5157    8.9455 C.3     1  UNL1        0.0210
@<TRIPOS>BOND
     1     1     2    2
     2     2    13    1
     3    13    14    1
     4    14    15    1
     5    15    16    1
     6    16    17    1
     7    17    18    1
     8    18    19    1
     9    19    20    1
    10    18    21    1
    11    21    22    1
    12     2     3    1
    13     3     4    2
    14     4     5    1
    15     5     6    2
    16     6     7    1
    17     7     8    1
    18     8     9    2
    19     9    10    1
    20    10    11    1
    21    10    12    2
    22    20    15    1
    23    12     3    1
    24    22    15    1
    25    12     6    1
@<TRIPOS>MOLECULE
*****
 22 25 0 0 0
SMALL
GASTEIGER

@<TRIPOS>ATOM
      1 O          60.9314   89.6345   12.5556 O.2     1  UNL1       -0.2448
      2 C          62.3623   89.4253   12.1576 C.2     1  UNL1        0.3428
      3 C          63.4589   90.1234   12.9061 C.2     1  UNL1        0.0966
      4 C          63.8945   89.8274   14.3106 C.2     1  UNL1        0.1049
      5 N          65.0171   90.7611   14.6541 N.2     1  UNL1       -0.2476
      6 C          65.2753   91.6340   13.4619 C.2     1  UNL1        0.0644
      7 C          66.2630   92.7368   13.2205 C.3     1  UNL1        0.0718
      8 C          66.2875   93.4455   11.8987 C.2     1  UNL1       -0.0189
      9 C          65.3244   93.0514   10.8184 C.2     1  UNL1        0.0073
     10 C          64.3368   91.9485   11.0598 C.2     1  UNL1        0.0587
     11 CL         63.3737   91.5544    9.9795 Cl      1  UNL1       -0.0822
     12 C          64.3122   91.2399   12.3816 C.2     1  UNL1        0.0322
     13 O          62.6968   88.5180   11.0108 O.3     1  UNL1       -0.4454
     14 C          62.0712   87.1574   10.9237 C.3     1  UNL1        0.2087
     15 C          61.3358   86.7482    9.6821 C.3     1  UNL1        0.0445
     16 C          59.9303   87.2194    9.4532 C.3     1  UNL1        0.0210
     17 C          59.1950   86.8101    8.2115 C.3     1  UNL1        0.0722
     18 N          59.8652   85.9297    7.1986 N.3     1  UNL1       -0.2727
     19 C          61.2707   85.4586    7.4275 C.3     1  UNL1        0.0722
     20 C          62.0061   85.8679    8.6693 C.3     1  UNL1        0.0210
     21 C          60.3083   86.1277    7.8638 C.3     1  UNL1        0.0722
     22 C          60.9733   86.4977    8.9865 C.3     1  UNL1        0.0210
@<TRIPOS>BOND
     1     1     2    2
     2     2    13    1
     3    13    14    1
     4    14    15    1
     5    15    16    1
     6    16    17    1
     7    17    18    1
     8    18    19    1
     9    19    20    1
    10    18    21    1
    11    21    22    1
    12     2     3    1
    13     3     4    2
    14     4     5    1
    15     5     6    2
    16     6     7    1
    17     7     8    1
    18     8     9    2
    19     9    10    1
    20    10    11    1
    21    10    12    2
    22    20    15    1
    23    12     3    1
    24    22    15    1
    25    12     6    1
@<TRIPOS>MOLECULE
*****
 22 25 0 0 0
SMALL
GASTEIGER

@<TRIPOS>ATOM
      1 O          60.7208   89.6414   12.3715 O.2     1  UNL1       -0.2448
      2 C          62.0959   89.3161   11.8683 C.2     1  UNL1        0.3428
      3 C          63.0734   90.4194   11.5905 C.2     1  UNL1        0.0966
      4 C          63.1536   91.2299   10.3309 C.2     1  UNL1        0.1049
      5 N          64.2722   92.2172   10.4855 N.2     1  UNL1       -0.2476
      6 C          64.8833   92.0170   11.8407 C.2     1  UNL1        0.0644
      7 C          66.0187   92.7028   12.5410 C.3     1  UNL1        0.0718
      8 C          66.4132   92.2775   13.9242 C.2     1  UNL1       -0.0189
      9 C          65.6723   91.1663   14.6072 C.2     1  UNL1        0.0073
     10 C          64.5369   90.4805   13.9069 C.2     1  UNL1        0.0587
     11 CL         63.7960   89.3693   14.5898 Cl      1  UNL1       -0.0822
     12 C          64.1424   90.9058   12.5236 C.2     1  UNL1        0.0322
     13 O          62.4934   87.8874   11.6429 O.3     1  UNL1       -0.4454
     14 C          61.4656   86.8811   11.2174 C.3     1  UNL1        0.2087
     15 C          61.4692   86.3533    9.8133 C.3     1  UNL1        0.0445
     16 C          62.6793   85.6442    9.2816 C.3     1  UNL1        0.0210
     17 C          62.6827   85.1165    7.8776 C.3     1  UNL1        0.0722
     18 N          61.4761   85.2978    7.0051 N.3     1  UNL1       -0.2727
     19 C          60.2659   86.0070    7.5368 C.3     1  UNL1        0.0722
     20 C          60.2625   86.5347    8.9410 C.3     1  UNL1        0.0210
     21 C          61.4273   85.6043    7.7678 C.3     1  UNL1        0.0722
     22 C          61.4241   86.0815    9.0374 C.3     1  UNL1        0.0210
@<TRIPOS>BOND
     1     1     2    2
     2     2    13    1
     3    13    14    1
     4    14    15    1
     5    15    16    1
     6    16    17    1
     7    17    18    1
     8    18    19    1
     9    19    20    1
    10    18    21    1
    11    21    22    1
    12     2     3    1
    13     3     4    2
    14     4     5    1
    15     5     6    2
    16     6     7    1
    17     7     8    1
    18     8     9    2
    19     9    10    1
    20    10    11    1
    21    10    12    2
    22    20    15    1
    23    12     3    1
    24    22    15    1
    25    12     6    1
@<TRIPOS>MOLECULE
*****
 22 25 0 0 0
SMALL
GASTEIGER

@<TRIPOS>ATOM
      1 O          63.5866   91.5178   14.7127 O.2     1  UNL1       -0.2448
      2 C          63.9434   90.8631   13.4112 C.2     1  UNL1        0.3428
      3 C          63.7279   89.3899   13.2288 C.2     1  UNL1        0.0966
      4 C          64.1647   88.3111   14.1751 C.2     1  UNL1        0.1049
      5 N          63.7445   86.9914   13.5991 N.2     1  UNL1       -0.2476
      6 C          63.0481   87.2545   12.2969 C.2     1  UNL1        0.0644
      7 C          62.4220   86.3358   11.2900 C.3     1  UNL1        0.0718
      8 C          61.7856   86.8995   10.0542 C.2     1  UNL1       -0.0189
      9 C          61.7754   88.3819    9.8253 C.2     1  UNL1        0.0073
     10 C          62.4015   89.3006   10.8322 C.2     1  UNL1        0.0587
     11 CL         62.3912   90.7830   10.6033 Cl      1  UNL1       -0.0822
     12 C          63.0379   88.7369   12.0680 C.2     1  UNL1        0.0322
     13 O          64.5158   91.6817   12.2920 O.3     1  UNL1       -0.4454
     14 C          65.8953   92.2581   12.4138 C.3     1  UNL1        0.2087
     15 C          66.5461   92.9030   11.2262 C.3     1  UNL1        0.0445
     16 C          66.1906   94.3104   10.8484 C.3     1  UNL1        0.0210
     17 C          66.8415   94.9553    9.6608 C.3     1  UNL1        0.0722
     18 N          67.8479   94.1928    8.8509 N.3     1  UNL1       -0.2727
     19 C          68.2034   92.7854    9.2288 C.3     1  UNL1        0.0722
     20 C          67.5525   92.1404   10.4165 C.3     1  UNL1        0.0210
     21 C          67.5177   93.7974    9.4933 C.3     1  UNL1        0.0722
     22 C          66.9292   93.2141   10.5671 C.3     1  UNL1        0.0210
@<TRIPOS>BOND
     1     1     2    2
     2     2    13    1
     3    13    14    1
     4    14    15    1
     5    15    16    1
     6    16    17    1
     7    17    18    1
     8    18    19    1
     9    19    20    1
    10    18    21    1
    11    21    22    1
    12     2     3    1
    13     3     4    2
    14     4     5    1
    15     5     6    2
    16     6     7    1
    17     7     8    1
    18     8     9    2
    19     9    10    1
    20    10    11    1
    21    10    12    2
    22    20    15    1
    23    12     3    1
    24    22    15    1
    25    12     6    1
@<TRIPOS>MOLECULE
*****
 22 25 0 0 0
SMALL
GASTEIGER

@<TRIPOS>ATOM
      1 O          60.8439   89.1932   12.3007 O.2     1  UNL1       -0.2448
      2 C          62.0830   89.0922   11.4615 C.2     1  UNL1        0.3428
      3 C          63.0097   90.2662   11.3477 C.2     1  UNL1        0.0966
      4 C          63.1011   91.2077   10.1836 C.2     1  UNL1        0.1049
      5 N          64.1556   92.2282   10.4946 N.2     1  UNL1       -0.2476
      6 C          64.7158   91.9174   11.8509 C.2     1  UNL1        0.0644
      7 C          65.7793   92.5819   12.6739 C.3     1  UNL1        0.0718
      8 C          66.1345   92.0338   14.0242 C.2     1  UNL1       -0.0189
      9 C          65.4263   90.8212   14.5515 C.2     1  UNL1        0.0073
     10 C          64.3628   90.1567   13.7285 C.2     1  UNL1        0.0587
     11 CL         63.6546   88.9441   14.2557 Cl      1  UNL1       -0.0822
     12 C          64.0076   90.7048   12.3782 C.2     1  UNL1        0.0322
     13 O          62.3954   87.8170   10.7359 O.3     1  UNL1       -0.4454
     14 C          61.7153   86.5410   11.1350 C.3     1  UNL1        0.2087
     15 C          62.5205   85.2899   11.3257 C.3     1  UNL1        0.0445
     16 C          62.7899   84.7747   12.7084 C.3     1  UNL1        0.0210
     17 C          63.5951   83.5236   12.8990 C.3     1  UNL1        0.0722
     18 N          64.1311   82.7876   11.7068 N.3     1  UNL1       -0.2727
     19 C          63.8617   83.3028   10.3241 C.3     1  UNL1        0.0722
     20 C          63.0564   84.5540   10.1335 C.3     1  UNL1        0.0210
     21 C          63.6950   83.4689   11.5525 C.3     1  UNL1        0.0722
     22 C          62.9669   84.6001   11.3800 C.3     1  UNL1        0.0210
@<TRIPOS>BOND
     1     1     2    2
     2     2    13    1
     3    13    14    1
     4    14    15    1
     5    15    16    1
     6    16    17    1
     7    17    18    1
     8    18    19    1
     9    19    20    1
    10    18    21    1
    11    21    22    1
    12     2     3    1
    13     3     4    2
    14     4     5    1
    15     5     6    2
    16     6     7    1
    17     7     8    1
    18     8     9    2
    19     9    10    1
    20    10    11    1
    21    10    12    2
    22    20    15    1
    23    12     3    1
    24    22    15    1
    25    12     6    1
@<TRIPOS>MOLECULE
*****
 22 25 0 0 0
SMALL
GASTEIGER

@<TRIPOS>ATOM
      1 O          61.3332   89.6501   12.8661 O.2     1  UNL1       -0.2448
      2 C          62.5453   89.4651   12.0022 C.2     1  UNL1        0.3428
      3 C          63.4700   90.6190   11.7500 C.2     1  UNL1        0.0966
      4 C          63.5330   91.4407   10.4968 C.2     1  UNL1        0.1049
      5 N          64.5959   92.4833   10.6791 N.2     1  UNL1       -0.2476
      6 C          65.1898   92.3058   12.0450 C.2     1  UNL1        0.0644
      7 C          66.2744   93.0446   12.7716 C.3     1  UNL1        0.0718
      8 C          66.6631   92.6311   14.1601 C.2     1  UNL1       -0.0189
      9 C          65.9672   91.4788   14.8220 C.2     1  UNL1        0.0073
     10 C          64.8827   90.7401   14.0954 C.2     1  UNL1        0.0587
     11 CL         64.1868   89.5878   14.7573 Cl      1  UNL1       -0.0822
     12 C          64.4940   91.1536   12.7069 C.2     1  UNL1        0.0322
     13 O          62.8329   88.1259   11.3904 O.3     1  UNL1       -0.4454
     14 C          61.7047   87.1937   11.0617 C.3     1  UNL1        0.2087
     15 C          60.9142   87.3880    9.8018 C.3     1  UNL1        0.0445
     16 C          60.5183   88.7689    9.3702 C.3     1  UNL1        0.0210
     17 C          59.7278   88.9631    8.1102 C.3     1  UNL1        0.0722
     18 N          59.3332   87.7764    7.2819 N.3     1  UNL1       -0.2727
     19 C          59.7292   86.3955    7.7135 C.3     1  UNL1        0.0722
     20 C          60.5197   86.2013    8.9735 C.3     1  UNL1        0.0210
     21 C          59.7664   87.6202    7.9645 C.3     1  UNL1        0.0722
     22 C          60.4811   87.4445    9.1037 C.3     1  UNL1        0.0210
@<TRIPOS>BOND
     1     1     2    2
     2     2    13    1
     3    13    14    1
     4    14    15    1
     5    15    16    1
     6    16    17    1
     7    17    18    1
     8    18    19    1
     9    19    20    1
    10    18    21    1
    11    21    22    1
    12     2     3    1
    13     3     4    2
    14     4     5    1
    15     5     6    2
    16     6     7    1
    17     7     8    1
    18     8     9    2
    19     9    10    1
    20    10    11    1
    21    10    12    2
    22    20    15    1
    23    12     3    1
    24    22    15    1
    25    12     6    1
@<TRIPOS>MOLECULE
*****
 22 25 0 0 0
SMALL
GASTEIGER

@<TRIPOS>ATOM
      1 O          63.8395   86.8016   13.3557 O.2     1  UNL1       -0.2448
      2 C          62.7614   85.8336   12.9676 C.2     1  UNL1        0.3428
      3 C          62.6963   84.4833   13.6176 C.2     1  UNL1        0.0966
      4 C          62.5002   84.2176   15.0808 C.2     1  UNL1        0.1049
      5 N          62.4986   82.7317   15.2859 N.2     1  UNL1       -0.2476
      6 C          62.6938   82.0790   13.9495 C.2     1  UNL1        0.0644
      7 C          62.7760   80.6389   13.5383 C.3     1  UNL1        0.0718
      8 C          62.9805   80.2813   12.0960 C.2     1  UNL1       -0.0189
      9 C          63.1027   81.3638   11.0649 C.2     1  UNL1        0.0073
     10 C          63.0204   82.8040   11.4761 C.2     1  UNL1        0.0587
     11 CL         63.1426   83.8865   10.4450 Cl      1  UNL1       -0.0822
     12 C          62.8160   83.1616   12.9184 C.2     1  UNL1        0.0322
     13 O          61.7483   86.2159   11.9295 O.3     1  UNL1       -0.4454
     14 C          62.1212   87.1690   10.8329 C.3     1  UNL1        0.2087
     15 C          61.1659   87.4255    9.7053 C.3     1  UNL1        0.0445
     16 C          60.5720   86.2745    8.9488 C.3     1  UNL1        0.0210
     17 C          59.6166   86.5311    7.8212 C.3     1  UNL1        0.0722
     18 N          59.2551   87.9388    7.4501 N.3     1  UNL1       -0.2727
     19 C          59.8490   89.0899    8.2066 C.3     1  UNL1        0.0722
     20 C          60.8044   88.8333    9.3342 C.3     1  UNL1        0.0210
     21 C          59.7831   87.8478    8.0754 C.3     1  UNL1        0.0722
     22 C          60.6469   87.6159    9.0950 C.3     1  UNL1        0.0210
@<TRIPOS>BOND
     1     1     2    2
     2     2    13    1
     3    13    14    1
     4    14    15    1
     5    15    16    1
     6    16    17    1
     7    17    18    1
     8    18    19    1
     9    19    20    1
    10    18    21    1
    11    21    22    1
    12     2     3    1
    13     3     4    2
    14     4     5    1
    15     5     6    2
    16     6     7    1
    17     7     8    1
    18     8     9    2
    19     9    10    1
    20    10    11    1
    21    10    12    2
    22    20    15    1
    23    12     3    1
    24    22    15    1
    25    12     6    1
@<TRIPOS>MOLECULE
*****
 22 25 0 0 0
SMALL
GASTEIGER

@<TRIPOS>ATOM
      1 O          62.2004   85.9999   12.2760 O.2     1  UNL1       -0.2448
      2 C          63.1030   85.2340   13.1971 C.2     1  UNL1        0.3428
      3 C          62.8001   83.8018   13.5245 C.2     1  UNL1        0.0966
      4 C          62.3358   83.2800   14.8519 C.2     1  UNL1        0.1049
      5 N          62.1571   81.7957   14.7297 N.2     1  UNL1       -0.2476
      6 C          62.5109   81.4002   13.3267 C.2     1  UNL1        0.0644
      7 C          62.5226   80.0712   12.6312 C.3     1  UNL1        0.0718
      8 C          62.9317   79.9821   11.1909 C.2     1  UNL1       -0.0189
      9 C          63.3291   81.2220   10.4460 C.2     1  UNL1        0.0073
     10 C          63.3174   82.5509   11.1415 C.2     1  UNL1        0.0587
     11 CL         63.7148   83.7908   10.3966 Cl      1  UNL1       -0.0822
     12 C          62.9083   82.6400   12.5818 C.2     1  UNL1        0.0322
     13 O          64.3087   85.9003   13.7909 O.3     1  UNL1       -0.4454
     14 C          64.2091   86.5811   15.1238 C.3     1  UNL1        0.2087
     15 C          63.9871   88.0628   15.1942 C.3     1  UNL1        0.0445
     16 C          63.4301   88.6793   16.4431 C.3     1  UNL1        0.0210
     17 C          63.2081   90.1611   16.5135 C.3     1  UNL1        0.0722
     18 N          63.5433   91.0266   15.3351 N.3     1  UNL1       -0.2727
     19 C          64.1004   90.4101   14.0862 C.3     1  UNL1        0.0722
     20 C          64.3223   88.9282   14.0158 C.3     1  UNL1        0.0210
     21 C          63.6822   90.2195   15.2494 C.3     1  UNL1        0.0722
     22 C          63.8829   88.8796   15.1856 C.3     1  UNL1        0.0210
@<TRIPOS>BOND
     1     1     2    2
     2     2    13    1
     3    13    14    1
     4    14    15    1
     5    15    16    1
     6    16    17    1
     7    17    18    1
     8    18    19    1
     9    19    20    1
    10    18    21    1
    11    21    22    1
    12     2     3    1
    13     3     4    2
    14     4     5    1
    15     5     6    2
    16     6     7    1
    17     7     8    1
    18     8     9    2
    19     9    10    1
    20    10    11    1
    21    10    12    2
    22    20    15    1
    23    12     3    1
    24    22    15    1
    25    12     6    1
@<TRIPOS>MOLECULE
*****
 22 25 0 0 0
SMALL
GASTEIGER

@<TRIPOS>ATOM
      1 O          60.4332   87.5509   11.5401 O.2     1  UNL1       -0.2448
      2 C          61.9111   87.3419   11.3920 C.2     1  UNL1        0.3428
      3 C          62.4284   86.2156   10.5472 C.2     1  UNL1        0.0966
      4 C          62.4057   86.1550    9.0486 C.2     1  UNL1        0.1049
      5 N          63.0226   84.8540    8.6280 N.2     1  UNL1       -0.2476
      6 C          63.4265   84.1106    9.8666 C.2     1  UNL1        0.0644
      7 C          64.0812   82.7761   10.0675 C.3     1  UNL1        0.0718
      8 C          64.3686   82.2831   11.4547 C.2     1  UNL1       -0.0189
      9 C          64.0014   83.1246   12.6409 C.2     1  UNL1        0.0073
     10 C          63.3467   84.4591   12.4399 C.2     1  UNL1        0.0587
     11 CL         62.9795   85.3006   13.6261 Cl      1  UNL1       -0.0822
     12 C          63.0592   84.9521   11.0527 C.2     1  UNL1        0.0322
     13 O          62.8718   88.2595   12.0887 O.3     1  UNL1       -0.4454
     14 C          62.5323   89.7104   12.2608 C.3     1  UNL1        0.2087
     15 C          63.6045   90.7516   12.1337 C.3     1  UNL1        0.0445
     16 C          64.4525   91.1036   13.3198 C.3     1  UNL1        0.0210
     17 C          65.5247   92.1449   13.1926 C.3     1  UNL1        0.0722
     18 N          65.7490   92.8341   11.8793 N.3     1  UNL1       -0.2727
     19 C          64.9009   92.4821   10.6932 C.3     1  UNL1        0.0722
     20 C          63.8287   91.4408   10.8204 C.3     1  UNL1        0.0210
     21 C          65.1494   92.2702   11.9005 C.3     1  UNL1        0.0722
     22 C          64.1799   91.3287   12.0154 C.3     1  UNL1        0.0210
@<TRIPOS>BOND
     1     1     2    2
     2     2    13    1
     3    13    14    1
     4    14    15    1
     5    15    16    1
     6    16    17    1
     7    17    18    1
     8    18    19    1
     9    19    20    1
    10    18    21    1
    11    21    22    1
    12     2     3    1
    13     3     4    2
    14     4     5    1
    15     5     6    2
    16     6     7    1
    17     7     8    1
    18     8     9    2
    19     9    10    1
    20    10    11    1
    21    10    12    2
    22    20    15    1
    23    12     3    1
    24    22    15    1
    25    12     6    1
