@<TRIPOS>MOLECULE
*****
 18 20 0 0 0
SMALL
GASTEIGER

@<TRIPOS>ATOM
      1 C          65.2564   91.4699   14.3215 C.3     1  UNL1        0.1200
      2 C          64.8639   90.1162   14.8346 C.3     1  UNL1        0.0346
      3 C          64.0307   89.2042   13.9837 C.3     1  UNL1        0.0285
      4 C          63.5899   89.6459   12.6197 C.ar    1  UNL1       -0.0260
      5 C          62.7567   88.7339   11.7688 C.ar    1  UNL1       -0.0045
      6 C          62.3160   89.1756   10.4048 C.ar    1  UNL1        0.0012
      7 C          62.7085   90.5294    9.8916 C.ar    1  UNL1       -0.0003
      8 C          63.5417   91.4414   10.7425 C.ar    1  UNL1       -0.0045
      9 C          63.9824   90.9996   12.1066 C.ar    1  UNL1       -0.0237
     10 C          64.8156   91.9116   12.9575 C.3     1  UNL1        0.0556
     11 C          61.4828   88.2636    9.5539 C.ar    1  UNL1        0.0192
     12 C          61.9543   86.8693    9.2645 C.ar    1  UNL1        0.0031
     13 C          61.1211   85.9573    8.4136 C.ar    1  UNL1        0.0207
     14 C          59.8164   86.4396    7.8522 C.ar    1  UNL1        0.0989
     15 N          59.3449   87.8338    8.1416 N.ar    1  UNL1       -0.2423
     16 C          60.1781   88.7458    8.9925 C.ar    1  UNL1        0.0988
     17 C          66.8993   93.4713   14.5340 C.3     1  UNL1        0.1740
     18 O          66.0896   92.3819   15.1724 O.3     1  UNL1       -0.3532
@<TRIPOS>BOND
     1    17    18    1
     2    18     1    1
     3     1     2    1
     4     2     3    1
     5     3     4    1
     6     4     5   ar
     7     5     6   ar
     8     6    11    1
     9    11    12   ar
    10    12    13   ar
    11    13    14   ar
    12    14    15   ar
    13    15    16   ar
    14     6     7   ar
    15     7     8   ar
    16     8     9   ar
    17     9    10    1
    18    10     1    1
    19     9     4   ar
    20    16    11   ar
@<TRIPOS>MOLECULE
*****
 18 20 0 0 0
SMALL
GASTEIGER

@<TRIPOS>ATOM
      1 C          66.0368   93.1251   13.0204 C.3     1  UNL1        0.1200
      2 C          65.8105   93.5755   11.6076 C.3     1  UNL1        0.0346
      3 C          64.9086   92.7875   10.7045 C.3     1  UNL1        0.0285
      4 C          64.2331   91.5490   11.2142 C.ar    1  UNL1       -0.0260
      5 C          63.3312   90.7609   10.3111 C.ar    1  UNL1       -0.0045
      6 C          62.6556   89.5225   10.8207 C.ar    1  UNL1        0.0012
      7 C          62.8819   89.0720   12.2335 C.ar    1  UNL1       -0.0003
      8 C          63.7838   89.8601   13.1366 C.ar    1  UNL1       -0.0045
      9 C          64.4594   91.0986   12.6269 C.ar    1  UNL1       -0.0237
     10 C          65.3613   91.8866   13.5300 C.3     1  UNL1        0.0556
     11 C          61.7537   88.7344    9.9176 C.ar    1  UNL1        0.0192
     12 C          62.0297   87.2820    9.6637 C.ar    1  UNL1        0.0031
     13 C          61.1278   86.4940    8.7606 C.ar    1  UNL1        0.0207
     14 C          59.9500   87.1583    8.1114 C.ar    1  UNL1        0.0989
     15 N          59.6741   88.6107    8.3654 N.ar    1  UNL1       -0.2423
     16 C          60.5759   89.3987    9.2685 C.ar    1  UNL1        0.0988
     17 C          67.3770   93.3348   15.2362 C.3     1  UNL1        0.1740
     18 O          66.9387   93.9132   13.9235 O.3     1  UNL1       -0.3532
@<TRIPOS>BOND
     1    17    18    1
     2    18     1    1
     3     1     2    1
     4     2     3    1
     5     3     4    1
     6     4     5   ar
     7     5     6   ar
     8     6    11    1
     9    11    12   ar
    10    12    13   ar
    11    13    14   ar
    12    14    15   ar
    13    15    16   ar
    14     6     7   ar
    15     7     8   ar
    16     8     9   ar
    17     9    10    1
    18    10     1    1
    19     9     4   ar
    20    16    11   ar
@<TRIPOS>MOLECULE
*****
 18 20 0 0 0
SMALL
GASTEIGER

@<TRIPOS>ATOM
      1 C          63.8063   90.3191   13.0626 C.3     1  UNL1        0.1200
      2 C          63.0242   89.8604   11.8677 C.3     1  UNL1        0.0346
      3 C          62.7396   88.4006   11.6729 C.3     1  UNL1        0.0285
      4 C          63.2371   87.3995   12.6730 C.ar    1  UNL1       -0.0260
      5 C          62.9525   85.9397   12.4782 C.ar    1  UNL1       -0.0045
      6 C          63.4500   84.9386   13.4783 C.ar    1  UNL1        0.0012
      7 C          64.2321   85.3973   14.6733 C.ar    1  UNL1       -0.0003
      8 C          64.5167   86.8571   14.8681 C.ar    1  UNL1       -0.0045
      9 C          64.0192   87.8582   13.8679 C.ar    1  UNL1       -0.0237
     10 C          64.3037   89.3180   14.0627 C.3     1  UNL1        0.0556
     11 C          63.1654   83.4788   13.2834 C.ar    1  UNL1        0.0192
     12 C          63.2234   82.8802   11.9092 C.ar    1  UNL1        0.0031
     13 C          62.9388   81.4204   11.7144 C.ar    1  UNL1        0.0207
     14 C          62.5962   80.5591   12.8938 C.ar    1  UNL1        0.0989
     15 N          62.5382   81.1577   14.2679 N.ar    1  UNL1       -0.2423
     16 C          62.8228   82.6175   14.4628 C.ar    1  UNL1        0.0988
     17 C          65.3066   92.3960   12.6321 C.3     1  UNL1        0.1740
     18 O          64.0909   91.7789   13.2574 O.3     1  UNL1       -0.3532
@<TRIPOS>BOND
     1    17    18    1
     2    18     1    1
     3     1     2    1
     4     2     3    1
     5     3     4    1
     6     4     5   ar
     7     5     6   ar
     8     6    11    1
     9    11    12   ar
    10    12    13   ar
    11    13    14   ar
    12    14    15   ar
    13    15    16   ar
    14     6     7   ar
    15     7     8   ar
    16     8     9   ar
    17     9    10    1
    18    10     1    1
    19     9     4   ar
    20    16    11   ar
@<TRIPOS>MOLECULE
*****
 18 20 0 0 0
SMALL
GASTEIGER

@<TRIPOS>ATOM
      1 C          66.3819   92.8500   14.3011 C.3     1  UNL1        0.1200
      2 C          65.8676   91.7048   15.1219 C.3     1  UNL1        0.0346
      3 C          64.8914   90.7340   14.5264 C.3     1  UNL1        0.0285
      4 C          64.4294   90.9086   13.1101 C.ar    1  UNL1       -0.0260
      5 C          63.4532   89.9378   12.5145 C.ar    1  UNL1       -0.0045
      6 C          62.9912   90.1124   11.0982 C.ar    1  UNL1        0.0012
      7 C          63.5055   91.2577   10.2773 C.ar    1  UNL1       -0.0003
      8 C          64.4818   92.2285   10.8728 C.ar    1  UNL1       -0.0045
      9 C          64.9437   92.0539   12.2892 C.ar    1  UNL1       -0.0237
     10 C          65.9200   93.0246   12.8848 C.3     1  UNL1        0.0556
     11 C          62.0150   89.1417   10.5027 C.ar    1  UNL1        0.0192
     12 C          61.0311   89.6058    9.4699 C.ar    1  UNL1        0.0031
     13 C          60.0549   88.6351    8.8744 C.ar    1  UNL1        0.0207
     14 C          60.0625   87.2002    9.3116 C.ar    1  UNL1        0.0989
     15 N          61.0464   86.7361   10.3444 N.ar    1  UNL1       -0.2423
     16 C          62.0226   87.7069   10.9399 C.ar    1  UNL1        0.0988
     17 C          68.5422   93.3163   15.6670 C.3     1  UNL1        0.1740
     18 O          67.3582   93.8208   14.8966 O.3     1  UNL1       -0.3532
@<TRIPOS>BOND
     1    17    18    1
     2    18     1    1
     3     1     2    1
     4     2     3    1
     5     3     4    1
     6     4     5   ar
     7     5     6   ar
     8     6    11    1
     9    11    12   ar
    10    12    13   ar
    11    13    14   ar
    12    14    15   ar
    13    15    16   ar
    14     6     7   ar
    15     7     8   ar
    16     8     9   ar
    17     9    10    1
    18    10     1    1
    19     9     4   ar
    20    16    11   ar
@<TRIPOS>MOLECULE
*****
 18 20 0 0 0
SMALL
GASTEIGER

@<TRIPOS>ATOM
      1 C          66.0516   93.9496   11.9638 C.3     1  UNL1        0.1200
      2 C          66.7035   93.8829   13.3131 C.3     1  UNL1        0.0346
      3 C          66.3961   92.7436   14.2391 C.3     1  UNL1        0.0285
      4 C          65.4368   91.6710   13.8159 C.ar    1  UNL1       -0.0260
      5 C          65.1294   90.5317   14.7419 C.ar    1  UNL1       -0.0045
      6 C          64.1700   89.4591   14.3186 C.ar    1  UNL1        0.0012
      7 C          63.5181   89.5257   12.9693 C.ar    1  UNL1       -0.0003
      8 C          63.8255   90.6650   12.0433 C.ar    1  UNL1       -0.0045
      9 C          64.7849   91.7377   12.4666 C.ar    1  UNL1       -0.0237
     10 C          65.0923   92.8770   11.5406 C.3     1  UNL1        0.0556
     11 C          63.8626   88.3198   15.2446 C.ar    1  UNL1        0.0192
     12 C          63.1323   88.5741   16.5300 C.ar    1  UNL1        0.0031
     13 C          62.8249   87.4348   17.4560 C.ar    1  UNL1        0.0207
     14 C          63.2477   86.0412   17.0966 C.ar    1  UNL1        0.0989
     15 N          63.9780   85.7869   15.8113 N.ar    1  UNL1       -0.2423
     16 C          64.2854   86.9262   14.8853 C.ar    1  UNL1        0.0988
     17 C          67.1113   94.8384    9.7645 C.3     1  UNL1        0.1740
     18 O          66.3591   95.0889   11.0378 O.3     1  UNL1       -0.3532
@<TRIPOS>BOND
     1    17    18    1
     2    18     1    1
     3     1     2    1
     4     2     3    1
     5     3     4    1
     6     4     5   ar
     7     5     6   ar
     8     6    11    1
     9    11    12   ar
    10    12    13   ar
    11    13    14   ar
    12    14    15   ar
    13    15    16   ar
    14     6     7   ar
    15     7     8   ar
    16     8     9   ar
    17     9    10    1
    18    10     1    1
    19     9     4   ar
    20    16    11   ar
@<TRIPOS>MOLECULE
*****
 18 20 0 0 0
SMALL
GASTEIGER

@<TRIPOS>ATOM
      1 C          61.0051   86.7007    9.3831 C.3     1  UNL1        0.1200
      2 C          61.5438   85.9540   10.5672 C.3     1  UNL1        0.0346
      3 C          62.3317   86.6803   11.6169 C.3     1  UNL1        0.0285
      4 C          62.5809   88.1533   11.4823 C.ar    1  UNL1       -0.0260
      5 C          63.3688   88.8796   12.5320 C.ar    1  UNL1       -0.0045
      6 C          63.6180   90.3526   12.3975 C.ar    1  UNL1        0.0012
      7 C          63.0792   91.0994   11.2133 C.ar    1  UNL1       -0.0003
      8 C          62.2913   90.3731   10.1637 C.ar    1  UNL1       -0.0045
      9 C          62.0422   88.9000   10.2982 C.ar    1  UNL1       -0.0237
     10 C          61.2543   88.1737    9.2486 C.3     1  UNL1        0.0556
     11 C          64.4059   91.0789   13.4471 C.ar    1  UNL1        0.0192
     12 C          65.6115   91.8821   13.0580 C.ar    1  UNL1        0.0031
     13 C          66.3994   92.6084   14.1076 C.ar    1  UNL1        0.0207
     14 C          65.9817   92.5315   15.5463 C.ar    1  UNL1        0.0989
     15 N          64.7760   91.7283   15.9353 N.ar    1  UNL1       -0.2423
     16 C          63.9881   91.0020   14.8856 C.ar    1  UNL1        0.0988
     17 C          59.0511   86.6468    7.6717 C.3     1  UNL1        0.1740
     18 O          60.2172   85.9744    8.3335 O.3     1  UNL1       -0.3532
@<TRIPOS>BOND
     1    17    18    1
     2    18     1    1
     3     1     2    1
     4     2     3    1
     5     3     4    1
     6     4     5   ar
     7     5     6   ar
     8     6    11    1
     9    11    12   ar
    10    12    13   ar
    11    13    14   ar
    12    14    15   ar
    13    15    16   ar
    14     6     7   ar
    15     7     8   ar
    16     8     9   ar
    17     9    10    1
    18    10     1    1
    19     9     4   ar
    20    16    11   ar
@<TRIPOS>MOLECULE
*****
 18 20 0 0 0
SMALL
GASTEIGER

@<TRIPOS>ATOM
      1 C          63.9674   90.1685   13.2780 C.3     1  UNL1        0.1200
      2 C          64.5741   89.4658   14.4561 C.3     1  UNL1        0.0346
      3 C          64.4524   87.9763   14.5852 C.3     1  UNL1        0.0285
      4 C          63.7240   87.1896   13.5362 C.ar    1  UNL1       -0.0260
      5 C          63.6023   85.7001   13.6652 C.ar    1  UNL1       -0.0045
      6 C          62.8739   84.9134   12.6162 C.ar    1  UNL1        0.0012
      7 C          62.2672   85.6162   11.4380 C.ar    1  UNL1       -0.0003
      8 C          62.3889   87.1057   11.3089 C.ar    1  UNL1       -0.0045
      9 C          63.1173   87.8924   12.3580 C.ar    1  UNL1       -0.0237
     10 C          63.2390   89.3818   12.2289 C.3     1  UNL1        0.0556
     11 C          62.7522   83.4240   12.7453 C.ar    1  UNL1        0.0192
     12 C          62.2744   82.8192   14.0322 C.ar    1  UNL1        0.0031
     13 C          62.1527   81.3298   14.1613 C.ar    1  UNL1        0.0207
     14 C          62.5088   80.4450   13.0035 C.ar    1  UNL1        0.0989
     15 N          62.9866   81.0497   11.7167 N.ar    1  UNL1       -0.2423
     16 C          63.1083   82.5392   11.5876 C.ar    1  UNL1        0.0988
     17 C          65.4435   92.2930   13.0378 C.3     1  UNL1        0.1740
     18 O          64.0891   91.6580   13.1489 O.3     1  UNL1       -0.3532
@<TRIPOS>BOND
     1    17    18    1
     2    18     1    1
     3     1     2    1
     4     2     3    1
     5     3     4    1
     6     4     5   ar
     7     5     6   ar
     8     6    11    1
     9    11    12   ar
    10    12    13   ar
    11    13    14   ar
    12    14    15   ar
    13    15    16   ar
    14     6     7   ar
    15     7     8   ar
    16     8     9   ar
    17     9    10    1
    18    10     1    1
    19     9     4   ar
    20    16    11   ar
@<TRIPOS>MOLECULE
*****
 18 20 0 0 0
SMALL
GASTEIGER

@<TRIPOS>ATOM
      1 C          59.5209   88.7952    7.5346 C.3     1  UNL1        0.1200
      2 C          59.2341   87.3383    7.3219 C.3     1  UNL1        0.0346
      3 C          59.8539   86.3124    8.2237 C.3     1  UNL1        0.0285
      4 C          60.7606   86.7433    9.3382 C.ar    1  UNL1       -0.0260
      5 C          61.3804   85.7174   10.2401 C.ar    1  UNL1       -0.0045
      6 C          62.2871   86.1483   11.3546 C.ar    1  UNL1        0.0012
      7 C          62.5740   87.6052   11.5673 C.ar    1  UNL1       -0.0003
      8 C          61.9542   88.6311   10.6655 C.ar    1  UNL1       -0.0045
      9 C          61.0474   88.2002    9.5509 C.ar    1  UNL1       -0.0237
     10 C          60.4276   89.2261    8.6491 C.3     1  UNL1        0.0556
     11 C          62.9069   85.1224   12.2564 C.ar    1  UNL1        0.0192
     12 C          62.8454   83.6685   11.8922 C.ar    1  UNL1        0.0031
     13 C          63.4653   82.6426   12.7940 C.ar    1  UNL1        0.0207
     14 C          64.1466   83.0705   14.0600 C.ar    1  UNL1        0.0989
     15 N          64.2080   84.5243   14.4242 N.ar    1  UNL1       -0.2423
     16 C          63.5882   85.5502   13.5224 C.ar    1  UNL1        0.0988
     17 C          59.7157   90.4512    5.5422 C.3     1  UNL1        0.1740
     18 O          58.9011   89.8211    6.6328 O.3     1  UNL1       -0.3532
@<TRIPOS>BOND
     1    17    18    1
     2    18     1    1
     3     1     2    1
     4     2     3    1
     5     3     4    1
     6     4     5   ar
     7     5     6   ar
     8     6    11    1
     9    11    12   ar
    10    12    13   ar
    11    13    14   ar
    12    14    15   ar
    13    15    16   ar
    14     6     7   ar
    15     7     8   ar
    16     8     9   ar
    17     9    10    1
    18    10     1    1
    19     9     4   ar
    20    16    11   ar
@<TRIPOS>MOLECULE
*****
 18 20 0 0 0
SMALL
GASTEIGER

@<TRIPOS>ATOM
      1 C          61.3949   89.2469   10.3497 C.3     1  UNL1        0.1200
      2 C          61.9336   90.4974    9.7205 C.3     1  UNL1        0.0346
      3 C          63.0511   91.2484   10.3818 C.3     1  UNL1        0.0285
      4 C          63.6299   90.7488   11.6722 C.ar    1  UNL1       -0.0260
      5 C          64.7474   91.4998   12.3335 C.ar    1  UNL1       -0.0045
      6 C          65.3262   91.0002   13.6239 C.ar    1  UNL1        0.0012
      7 C          64.7876   89.7496   14.2532 C.ar    1  UNL1       -0.0003
      8 C          63.6701   88.9987   13.5920 C.ar    1  UNL1       -0.0045
      9 C          63.0912   89.4983   12.3014 C.ar    1  UNL1       -0.0237
     10 C          61.9738   88.7473   11.6402 C.3     1  UNL1        0.0556
     11 C          66.4437   91.7512   14.2852 C.ar    1  UNL1        0.0192
     12 C          66.2381   92.3630   15.6393 C.ar    1  UNL1        0.0031
     13 C          67.3556   93.1140   16.3005 C.ar    1  UNL1        0.0207
     14 C          68.6787   93.2532   15.6076 C.ar    1  UNL1        0.0989
     15 N          68.8843   92.6414   14.2536 N.ar    1  UNL1       -0.2423
     16 C          67.7668   91.8905   13.5924 C.ar    1  UNL1        0.0988
     17 C          60.4346   87.0367    9.3787 C.3     1  UNL1        0.1740
     18 O          60.2774   88.4959    9.6885 O.3     1  UNL1       -0.3532
@<TRIPOS>BOND
     1    17    18    1
     2    18     1    1
     3     1     2    1
     4     2     3    1
     5     3     4    1
     6     4     5   ar
     7     5     6   ar
     8     6    11    1
     9    11    12   ar
    10    12    13   ar
    11    13    14   ar
    12    14    15   ar
    13    15    16   ar
    14     6     7   ar
    15     7     8   ar
    16     8     9   ar
    17     9    10    1
    18    10     1    1
    19     9     4   ar
    20    16    11   ar
