@<TRIPOS>MOLECULE
*****
 28 30 0 0 0
SMALL
GASTEIGER

@<TRIPOS>ATOM
      1 C          65.4544   92.5334   12.6595 C.ar    1  UNL1        0.1057
      2 C          64.3573   91.7277   12.0293 C.ar    1  UNL1        0.0183
      3 C          63.9368   90.4247   12.6421 C.ar    1  UNL1        0.0013
      4 C          64.6134   89.9275   13.8850 C.ar    1  UNL1        0.0001
      5 C          65.7105   90.7332   14.5152 C.ar    1  UNL1        0.0013
      6 C          66.1310   92.0361   13.9024 C.ar    1  UNL1        0.0183
      7 C          64.1928   88.6245   14.4977 C.ar    1  UNL1       -0.0000
      8 C          63.6644   88.5916   15.9012 C.ar    1  UNL1       -0.0003
      9 C          63.2439   87.2887   16.5139 C.ar    1  UNL1       -0.0042
     10 C          63.3518   86.0186   15.7232 C.ar    1  UNL1       -0.0208
     11 C          63.8802   86.0515   14.3198 C.ar    1  UNL1       -0.0042
     12 C          64.3007   87.3544   13.7071 C.ar    1  UNL1       -0.0003
     13 C          62.9312   84.7157   16.3360 C.3     1  UNL1        0.0437
     14 C          62.1062   83.7457   15.5433 C.3     1  UNL1        0.0768
     15 N          62.7601   82.8676   14.5179 N.3     1  UNL1       -0.2737
     16 C          64.1216   83.0712   13.9221 C.3     1  UNL1        0.0721
     17 C          64.3703   81.9612   12.9443 C.3     1  UNL1        0.0187
     18 C          63.1626   81.0716   12.9358 C.3     1  UNL1        0.0174
     19 C          62.1674   81.6318   13.9084 C.3     1  UNL1        0.0576
     20 C          60.8168   81.0571   14.2172 C.3     1  UNL1        0.0173
     21 S          65.8750   93.8363   12.0467 S.O2    1  UNL1        0.0087
     22 O          66.4130   94.2863   13.3727 O.2     1  UNL1       -0.1686
     23 O          65.3370   93.3864   10.7208 O.2     1  UNL1       -0.1686
     24 C          66.2955   95.1393   11.4340 C.3     1  UNL1        0.1585
     25 C          66.3740   95.2759    9.9423 C.3     1  UNL1        0.0578
     26 C          67.6792   95.0557    9.2367 C.3     1  UNL1        0.1441
     27 C          68.5641   92.6166    9.1026 C.3     1  UNL1        0.1741
     28 O          68.6177   93.9863    9.7118 O.3     1  UNL1       -0.3510
@<TRIPOS>BOND
     1    27    28    1
     2    28    26    1
     3    26    25    1
     4    25    24    1
     5    24    21    1
     6    21    22    2
     7    21    23    2
     8    21     1    1
     9     1     2   ar
    10     2     3   ar
    11     3     4   ar
    12     4     7    1
    13     7     8   ar
    14     8     9   ar
    15     9    10   ar
    16    10    13    1
    17    13    14    1
    18    14    15    1
    19    15    16    1
    20    16    17    1
    21    17    18    1
    22    18    19    1
    23    19    20    1
    24    10    11   ar
    25    11    12   ar
    26     4     5   ar
    27     5     6   ar
    28     6     1   ar
    29    12     7   ar
    30    19    15    1
@<TRIPOS>MOLECULE
*****
 28 30 0 0 0
SMALL
GASTEIGER

@<TRIPOS>ATOM
      1 C          63.3615   85.4897   14.4300 C.ar    1  UNL1        0.1057
      2 C          64.0864   86.2663   15.4890 C.ar    1  UNL1        0.0183
      3 C          64.5172   87.6780   15.2211 C.ar    1  UNL1        0.0013
      4 C          64.2231   88.3130   13.8944 C.ar    1  UNL1        0.0001
      5 C          63.4983   87.5363   12.8355 C.ar    1  UNL1        0.0013
      6 C          63.0675   86.1247   13.1033 C.ar    1  UNL1        0.0183
      7 C          64.6539   89.7246   13.6266 C.ar    1  UNL1       -0.0000
      8 C          65.6587   90.3851   14.5234 C.ar    1  UNL1       -0.0003
      9 C          66.0895   91.7967   14.2556 C.ar    1  UNL1       -0.0042
     10 C          65.5155   92.5478   13.0910 C.ar    1  UNL1       -0.0208
     11 C          64.5108   91.8874   12.1942 C.ar    1  UNL1       -0.0042
     12 C          64.0800   90.4758   12.4620 C.ar    1  UNL1       -0.0003
     13 C          65.9464   93.9595   12.8232 C.3     1  UNL1        0.0437
     14 C          66.0362   94.4614   11.4125 C.3     1  UNL1        0.0768
     15 N          66.9956   93.8264   10.4502 N.3     1  UNL1       -0.2737
     16 C          67.5382   92.4307   10.5377 C.3     1  UNL1        0.0721
     17 C          68.4589   92.2173    9.3730 C.3     1  UNL1        0.0187
     18 C          68.4854   93.4811    8.5655 C.3     1  UNL1        0.0174
     19 C          67.5811   94.4756    9.2312 C.3     1  UNL1        0.0576
     20 C          67.3098   95.8738    8.7606 C.3     1  UNL1        0.0173
     21 S          62.9307   84.0781   14.6978 S.O2    1  UNL1        0.0087
     22 O          64.2599   83.5804   14.2126 O.2     1  UNL1       -0.1686
     23 O          61.6015   84.5758   15.1830 O.2     1  UNL1       -0.1686
     24 C          62.4999   82.6665   14.9656 C.3     1  UNL1        0.1585
     25 C          61.7063   81.9166   13.9372 C.3     1  UNL1        0.0578
     26 C          62.1475   80.5519   13.4978 C.3     1  UNL1        0.1441
     27 C          63.1369   81.5693   11.3216 C.3     1  UNL1        0.1741
     28 O          62.8210   80.3729   12.1695 O.3     1  UNL1       -0.3510
@<TRIPOS>BOND
     1    27    28    1
     2    28    26    1
     3    26    25    1
     4    25    24    1
     5    24    21    1
     6    21    22    2
     7    21    23    2
     8    21     1    1
     9     1     2   ar
    10     2     3   ar
    11     3     4   ar
    12     4     7    1
    13     7     8   ar
    14     8     9   ar
    15     9    10   ar
    16    10    13    1
    17    13    14    1
    18    14    15    1
    19    15    16    1
    20    16    17    1
    21    17    18    1
    22    18    19    1
    23    19    20    1
    24    10    11   ar
    25    11    12   ar
    26     4     5   ar
    27     5     6   ar
    28     6     1   ar
    29    12     7   ar
    30    19    15    1
@<TRIPOS>MOLECULE
*****
 28 30 0 0 0
SMALL
GASTEIGER

@<TRIPOS>ATOM
      1 C          63.0692   83.2323   13.2120 C.ar    1  UNL1        0.1057
      2 C          62.5778   84.0430   12.0495 C.ar    1  UNL1        0.0183
      3 C          62.7796   85.5292   12.0329 C.ar    1  UNL1        0.0013
      4 C          63.4728   86.2049   13.1787 C.ar    1  UNL1        0.0001
      5 C          63.9642   85.3942   14.3411 C.ar    1  UNL1        0.0013
      6 C          63.7624   83.9080   14.3578 C.ar    1  UNL1        0.0183
      7 C          63.6746   87.6911   13.1620 C.ar    1  UNL1       -0.0000
      8 C          64.4125   88.3604   14.2834 C.ar    1  UNL1       -0.0003
      9 C          64.6143   89.8467   14.2668 C.ar    1  UNL1       -0.0042
     10 C          64.0783   90.6637   13.1287 C.ar    1  UNL1       -0.0208
     11 C          63.3404   89.9944   12.0073 C.ar    1  UNL1       -0.0042
     12 C          63.1386   88.5081   12.0240 C.ar    1  UNL1       -0.0003
     13 C          64.2801   92.1499   13.1120 C.3     1  UNL1        0.0437
     14 C          65.6534   92.7181   12.9093 C.3     1  UNL1        0.0768
     15 N          66.6682   92.6385   14.0111 N.3     1  UNL1       -0.2737
     16 C          66.4497   93.0345   15.4413 C.3     1  UNL1        0.0721
     17 C          67.7261   92.7897   16.1902 C.3     1  UNL1        0.0187
     18 C          68.7335   92.2424   15.2229 C.3     1  UNL1        0.0174
     19 C          68.0797   92.1490   13.8760 C.3     1  UNL1        0.0576
     20 C          68.7241   91.6531   12.6156 C.3     1  UNL1        0.0173
     21 S          62.8674   81.7461   13.2287 S.O2    1  UNL1        0.0087
     22 O          63.3494   81.6965   14.6482 O.2     1  UNL1       -0.1686
     23 O          62.3853   81.7956   11.8091 O.2     1  UNL1       -0.1686
     24 C          62.6656   80.2598   13.2453 C.3     1  UNL1        0.1585
     25 C          61.3930   79.6818   13.7898 C.3     1  UNL1        0.0578
     26 C          60.2821   80.5909   14.2248 C.3     1  UNL1        0.1441
     27 C          58.7341   78.5522   14.6692 C.3     1  UNL1        0.1741
     28 O          58.9172   80.0308   14.4958 O.3     1  UNL1       -0.3510
@<TRIPOS>BOND
     1    27    28    1
     2    28    26    1
     3    26    25    1
     4    25    24    1
     5    24    21    1
     6    21    22    2
     7    21    23    2
     8    21     1    1
     9     1     2   ar
    10     2     3   ar
    11     3     4   ar
    12     4     7    1
    13     7     8   ar
    14     8     9   ar
    15     9    10   ar
    16    10    13    1
    17    13    14    1
    18    14    15    1
    19    15    16    1
    20    16    17    1
    21    17    18    1
    22    18    19    1
    23    19    20    1
    24    10    11   ar
    25    11    12   ar
    26     4     5   ar
    27     5     6   ar
    28     6     1   ar
    29    12     7   ar
    30    19    15    1
@<TRIPOS>MOLECULE
*****
 28 30 0 0 0
SMALL
GASTEIGER

@<TRIPOS>ATOM
      1 C          63.1892   84.3784   14.2658 C.ar    1  UNL1        0.1057
      2 C          63.8785   85.1757   15.3331 C.ar    1  UNL1        0.0183
      3 C          64.2071   86.6199   15.0961 C.ar    1  UNL1        0.0013
      4 C          63.8465   87.2669   13.7918 C.ar    1  UNL1        0.0001
      5 C          63.1572   86.4697   12.7245 C.ar    1  UNL1        0.0013
      6 C          62.8286   85.0254   12.9614 C.ar    1  UNL1        0.0183
      7 C          64.1752   88.7111   13.5548 C.ar    1  UNL1       -0.0000
      8 C          65.0827   89.4389   14.5017 C.ar    1  UNL1       -0.0003
      9 C          65.4114   90.8832   14.2647 C.ar    1  UNL1       -0.0042
     10 C          64.8325   91.5996   13.0808 C.ar    1  UNL1       -0.0208
     11 C          63.9250   90.8718   12.1339 C.ar    1  UNL1       -0.0042
     12 C          63.5963   89.4276   12.3709 C.ar    1  UNL1       -0.0003
     13 C          65.1612   93.0438   12.8439 C.3     1  UNL1        0.0437
     14 C          66.5653   93.4475   12.5043 C.3     1  UNL1        0.0768
     15 N          66.8570   94.1186   11.1948 N.3     1  UNL1       -0.2737
     16 C          66.5608   95.5484   10.8516 C.3     1  UNL1        0.0721
     17 C          67.0168   95.7911    9.4433 C.3     1  UNL1        0.0187
     18 C          67.5947   94.5112    8.9162 C.3     1  UNL1        0.0174
     19 C          67.4960   93.4775    9.9986 C.3     1  UNL1        0.0576
     20 C          67.9555   92.0530    9.9020 C.3     1  UNL1        0.0173
     21 S          62.8605   82.9342   14.5027 S.O2    1  UNL1        0.0087
     22 O          64.2485   82.7037   15.0228 O.2     1  UNL1       -0.1686
     23 O          61.4726   83.1647   13.9827 O.2     1  UNL1       -0.1686
     24 C          62.5319   81.4900   14.7397 C.3     1  UNL1        0.1585
     25 C          62.0310   80.6396   13.6101 C.3     1  UNL1        0.0578
     26 C          62.8409   80.5077   12.3544 C.3     1  UNL1        0.1441
     27 C          64.0449   82.2736   10.8774 C.3     1  UNL1        0.1741
     28 O          62.7857   81.5829   11.3099 O.3     1  UNL1       -0.3510
@<TRIPOS>BOND
     1    27    28    1
     2    28    26    1
     3    26    25    1
     4    25    24    1
     5    24    21    1
     6    21    22    2
     7    21    23    2
     8    21     1    1
     9     1     2   ar
    10     2     3   ar
    11     3     4   ar
    12     4     7    1
    13     7     8   ar
    14     8     9   ar
    15     9    10   ar
    16    10    13    1
    17    13    14    1
    18    14    15    1
    19    15    16    1
    20    16    17    1
    21    17    18    1
    22    18    19    1
    23    19    20    1
    24    10    11   ar
    25    11    12   ar
    26     4     5   ar
    27     5     6   ar
    28     6     1   ar
    29    12     7   ar
    30    19    15    1
@<TRIPOS>MOLECULE
*****
 28 30 0 0 0
SMALL
GASTEIGER

@<TRIPOS>ATOM
      1 C          63.1680   83.4379   13.3375 C.ar    1  UNL1        0.1057
      2 C          63.7705   84.1047   14.5385 C.ar    1  UNL1        0.0183
      3 C          64.0069   85.5860   14.5343 C.ar    1  UNL1        0.0013
      4 C          63.6406   86.4005   13.3291 C.ar    1  UNL1        0.0001
      5 C          63.0380   85.7337   12.1282 C.ar    1  UNL1        0.0013
      6 C          62.8017   84.2524   12.1324 C.ar    1  UNL1        0.0183
      7 C          63.8770   87.8817   13.3249 C.ar    1  UNL1       -0.0000
      8 C          64.6646   88.5187   14.4312 C.ar    1  UNL1       -0.0003
      9 C          64.9009   89.9999   14.4270 C.ar    1  UNL1       -0.0042
     10 C          64.3496   90.8442   13.3165 C.ar    1  UNL1       -0.0208
     11 C          63.5620   90.2073   12.2103 C.ar    1  UNL1       -0.0042
     12 C          63.3256   88.7260   12.2145 C.ar    1  UNL1       -0.0003
     13 C          64.5860   92.3255   13.3123 C.3     1  UNL1        0.0437
     14 C          65.9838   92.8617   13.2210 C.3     1  UNL1        0.0768
     15 N          66.7267   92.8015   11.9192 N.3     1  UNL1       -0.2737
     16 C          67.7890   91.8069   11.5555 C.3     1  UNL1        0.0721
     17 C          68.2565   92.1159   10.1641 C.3     1  UNL1        0.0187
     18 C          67.4832   93.3016    9.6679 C.3     1  UNL1        0.0174
     19 C          66.5377   93.7253   10.7526 C.3     1  UNL1        0.0576
     20 C          65.5727   94.8715   10.6830 C.3     1  UNL1        0.0173
     21 S          62.9316   81.9567   13.3418 S.O2    1  UNL1        0.0087
     22 O          63.4480   81.8783   14.7479 O.2     1  UNL1       -0.1686
     23 O          62.4152   82.0351   11.9356 O.2     1  UNL1       -0.1686
     24 C          62.6953   80.4754   13.3460 C.3     1  UNL1        0.1585
     25 C          61.4436   79.9174   13.9557 C.3     1  UNL1        0.0578
     26 C          60.2492   80.8019   14.1583 C.3     1  UNL1        0.1441
     27 C          58.7794   78.7151   14.6433 C.3     1  UNL1        0.1741
     28 O          58.9340   80.2050   14.5636 O.3     1  UNL1       -0.3510
@<TRIPOS>BOND
     1    27    28    1
     2    28    26    1
     3    26    25    1
     4    25    24    1
     5    24    21    1
     6    21    22    2
     7    21    23    2
     8    21     1    1
     9     1     2   ar
    10     2     3   ar
    11     3     4   ar
    12     4     7    1
    13     7     8   ar
    14     8     9   ar
    15     9    10   ar
    16    10    13    1
    17    13    14    1
    18    14    15    1
    19    15    16    1
    20    16    17    1
    21    17    18    1
    22    18    19    1
    23    19    20    1
    24    10    11   ar
    25    11    12   ar
    26     4     5   ar
    27     5     6   ar
    28     6     1   ar
    29    12     7   ar
    30    19    15    1
@<TRIPOS>MOLECULE
*****
 28 30 0 0 0
SMALL
GASTEIGER

@<TRIPOS>ATOM
      1 C          63.2320   84.1742   14.0549 C.ar    1  UNL1        0.1057
      2 C          63.9441   84.9212   15.1435 C.ar    1  UNL1        0.0183
      3 C          64.2462   86.3810   14.9776 C.ar    1  UNL1        0.0013
      4 C          63.8363   87.0940   13.7232 C.ar    1  UNL1        0.0001
      5 C          63.1242   86.3470   12.6347 C.ar    1  UNL1        0.0013
      6 C          62.8221   84.8872   12.8005 C.ar    1  UNL1        0.0183
      7 C          64.1384   88.5538   13.5574 C.ar    1  UNL1       -0.0000
      8 C          63.5605   89.3125   12.3997 C.ar    1  UNL1       -0.0003
      9 C          63.8626   90.7724   12.2338 C.ar    1  UNL1       -0.0042
     10 C          64.7427   91.4736   13.2256 C.ar    1  UNL1       -0.0208
     11 C          65.3206   90.7149   14.3833 C.ar    1  UNL1       -0.0042
     12 C          65.0185   89.2550   14.5492 C.ar    1  UNL1       -0.0003
     13 C          65.0448   92.9334   13.0598 C.3     1  UNL1        0.0437
     14 C          66.4516   93.3831   12.7975 C.3     1  UNL1        0.0768
     15 N          66.8991   93.6664   11.3941 N.3     1  UNL1       -0.2737
     16 C          67.5723   92.6952   10.4703 C.3     1  UNL1        0.0721
     17 C          67.8412   93.3992    9.1734 C.3     1  UNL1        0.0187
     18 C          67.3342   94.8056    9.2956 C.3     1  UNL1        0.0174
     19 C          66.7519   94.9708   10.6681 C.3     1  UNL1        0.0576
     20 C          66.1314   96.2208   11.2180 C.3     1  UNL1        0.0173
     21 S          62.9299   82.7144   14.2208 S.O2    1  UNL1        0.0087
     22 O          64.3501   82.3808   13.8719 O.2     1  UNL1       -0.1686
     23 O          61.5097   83.0479   14.5697 O.2     1  UNL1       -0.1686
     24 C          62.6277   81.2545   14.3867 C.3     1  UNL1        0.1585
     25 C          62.5722   80.3588   13.1848 C.3     1  UNL1        0.0578
     26 C          62.3770   80.9476   11.8190 C.3     1  UNL1        0.1441
     27 C          63.9509   82.4389   10.3876 C.3     1  UNL1        0.1741
     28 O          63.5447   81.0842   10.8873 O.3     1  UNL1       -0.3510
@<TRIPOS>BOND
     1    27    28    1
     2    28    26    1
     3    26    25    1
     4    25    24    1
     5    24    21    1
     6    21    22    2
     7    21    23    2
     8    21     1    1
     9     1     2   ar
    10     2     3   ar
    11     3     4   ar
    12     4     7    1
    13     7     8   ar
    14     8     9   ar
    15     9    10   ar
    16    10    13    1
    17    13    14    1
    18    14    15    1
    19    15    16    1
    20    16    17    1
    21    17    18    1
    22    18    19    1
    23    19    20    1
    24    10    11   ar
    25    11    12   ar
    26     4     5   ar
    27     5     6   ar
    28     6     1   ar
    29    12     7   ar
    30    19    15    1
@<TRIPOS>MOLECULE
*****
 28 30 0 0 0
SMALL
GASTEIGER

@<TRIPOS>ATOM
      1 C          59.7387   88.6422    7.3398 C.ar    1  UNL1        0.1057
      2 C          60.5005   89.1417    8.5315 C.ar    1  UNL1        0.0183
      3 C          61.2511   88.1763    9.4003 C.ar    1  UNL1        0.0013
      4 C          61.2400   86.7116    9.0773 C.ar    1  UNL1        0.0001
      5 C          60.4782   86.2122    7.8856 C.ar    1  UNL1        0.0013
      6 C          59.7276   87.1775    7.0168 C.ar    1  UNL1        0.0183
      7 C          61.9906   85.7463    9.9460 C.ar    1  UNL1       -0.0000
      8 C          62.9875   84.8065    9.3354 C.ar    1  UNL1       -0.0003
      9 C          63.7381   83.8411   10.2041 C.ar    1  UNL1       -0.0042
     10 C          63.4918   83.8156   11.6835 C.ar    1  UNL1       -0.0208
     11 C          62.4949   84.7554   12.2942 C.ar    1  UNL1       -0.0042
     12 C          61.7443   85.7207   11.4254 C.ar    1  UNL1       -0.0003
     13 C          64.2424   82.8503   12.5523 C.3     1  UNL1        0.0437
     14 C          63.8034   82.6170   13.9675 C.3     1  UNL1        0.0768
     15 N          63.5438   83.7835   14.8741 N.3     1  UNL1       -0.2737
     16 C          62.3012   84.0124   15.6825 C.3     1  UNL1        0.0721
     17 C          62.4706   85.2962   16.4396 C.3     1  UNL1        0.0187
     18 C          63.8180   85.8608   16.0990 C.3     1  UNL1        0.0174
     19 C          64.4813   84.9259   15.1315 C.3     1  UNL1        0.0576
     20 C          65.8428   85.1024   14.5275 C.3     1  UNL1        0.0173
     21 S          58.9881   89.6076    6.4711 S.O2    1  UNL1        0.0087
     22 O          60.2865   90.1858    5.9918 O.2     1  UNL1       -0.1686
     23 O          57.6897   89.0293    6.9503 O.2     1  UNL1       -0.1686
     24 C          58.2375   90.5729    5.6023 C.3     1  UNL1        0.1585
     25 C          58.8828   91.8590    5.1789 C.3     1  UNL1        0.0578
     26 C          58.9676   92.2120    3.7235 C.3     1  UNL1        0.1441
     27 C          60.1498   93.5841    1.8606 C.3     1  UNL1        0.1741
     28 O          59.7230   93.4336    3.2908 O.3     1  UNL1       -0.3510
@<TRIPOS>BOND
     1    27    28    1
     2    28    26    1
     3    26    25    1
     4    25    24    1
     5    24    21    1
     6    21    22    2
     7    21    23    2
     8    21     1    1
     9     1     2   ar
    10     2     3   ar
    11     3     4   ar
    12     4     7    1
    13     7     8   ar
    14     8     9   ar
    15     9    10   ar
    16    10    13    1
    17    13    14    1
    18    14    15    1
    19    15    16    1
    20    16    17    1
    21    17    18    1
    22    18    19    1
    23    19    20    1
    24    10    11   ar
    25    11    12   ar
    26     4     5   ar
    27     5     6   ar
    28     6     1   ar
    29    12     7   ar
    30    19    15    1
@<TRIPOS>MOLECULE
*****
 28 30 0 0 0
SMALL
GASTEIGER

@<TRIPOS>ATOM
      1 C          59.7176   89.1997    7.4071 C.ar    1  UNL1        0.1057
      2 C          60.3826   90.0122    8.4783 C.ar    1  UNL1        0.0183
      3 C          61.0911   89.3265    9.6087 C.ar    1  UNL1        0.0013
      4 C          61.1347   87.8283    9.6679 C.ar    1  UNL1        0.0001
      5 C          60.4697   87.0158    8.5966 C.ar    1  UNL1        0.0013
      6 C          59.7612   87.7016    7.4662 C.ar    1  UNL1        0.0183
      7 C          61.8432   87.1426   10.7983 C.ar    1  UNL1       -0.0000
      8 C          61.6573   85.6703   11.0169 C.ar    1  UNL1       -0.0003
      9 C          62.3658   84.9846   12.1473 C.ar    1  UNL1       -0.0042
     10 C          63.2602   85.7712   13.0591 C.ar    1  UNL1       -0.0208
     11 C          63.4461   87.2434   12.8404 C.ar    1  UNL1       -0.0042
     12 C          62.7376   87.9291   11.7100 C.ar    1  UNL1       -0.0003
     13 C          63.9688   85.0855   14.1895 C.3     1  UNL1        0.0437
     14 C          64.5901   83.7368   13.9772 C.3     1  UNL1        0.0768
     15 N          63.7415   82.5810   13.5367 N.3     1  UNL1       -0.2737
     16 C          62.7859   81.8100   14.3984 C.3     1  UNL1        0.0721
     17 C          62.1533   80.7457   13.5515 C.3     1  UNL1        0.0187
     18 C          62.7179   80.8590   12.1664 C.3     1  UNL1        0.0174
     19 C          63.6994   81.9933   12.1572 C.3     1  UNL1        0.0576
     20 C          64.4986   82.4582   10.9761 C.3     1  UNL1        0.0173
     21 S          59.0091   89.8854    6.2767 S.O2    1  UNL1        0.0087
     22 O          57.7004   89.3395    6.7658 O.2     1  UNL1       -0.1686
     23 O          60.3178   90.4314    5.7876 O.2     1  UNL1       -0.1686
     24 C          58.3006   90.5711    5.1463 C.3     1  UNL1        0.1585
     25 C          58.6034   92.0062    4.8318 C.3     1  UNL1        0.0578
     26 C          59.1952   92.3741    3.5035 C.3     1  UNL1        0.1441
     27 C          60.4514   94.0751    1.9938 C.3     1  UNL1        0.1741
     28 O          59.8329   93.7184    3.3130 O.3     1  UNL1       -0.3510
@<TRIPOS>BOND
     1    27    28    1
     2    28    26    1
     3    26    25    1
     4    25    24    1
     5    24    21    1
     6    21    22    2
     7    21    23    2
     8    21     1    1
     9     1     2   ar
    10     2     3   ar
    11     3     4   ar
    12     4     7    1
    13     7     8   ar
    14     8     9   ar
    15     9    10   ar
    16    10    13    1
    17    13    14    1
    18    14    15    1
    19    15    16    1
    20    16    17    1
    21    17    18    1
    22    18    19    1
    23    19    20    1
    24    10    11   ar
    25    11    12   ar
    26     4     5   ar
    27     5     6   ar
    28     6     1   ar
    29    12     7   ar
    30    19    15    1
@<TRIPOS>MOLECULE
*****
 28 30 0 0 0
SMALL
GASTEIGER

@<TRIPOS>ATOM
      1 C          63.3225   85.5119   14.1345 C.ar    1  UNL1        0.1057
      2 C          62.9212   86.1376   12.8316 C.ar    1  UNL1        0.0183
      3 C          63.2999   87.5581   12.5337 C.ar    1  UNL1        0.0013
      4 C          64.0797   88.3530   13.5386 C.ar    1  UNL1        0.0001
      5 C          64.4809   87.7273   14.8415 C.ar    1  UNL1        0.0013
      6 C          64.1023   86.3068   15.1394 C.ar    1  UNL1        0.0183
      7 C          64.4583   89.7735   13.2407 C.ar    1  UNL1       -0.0000
      8 C          65.2900   90.5489   14.2189 C.ar    1  UNL1       -0.0003
      9 C          65.6686   91.9695   13.9209 C.ar    1  UNL1       -0.0042
     10 C          65.2156   92.6145   12.6448 C.ar    1  UNL1       -0.0208
     11 C          64.3839   91.8391   11.6666 C.ar    1  UNL1       -0.0042
     12 C          64.0052   90.4186   11.9646 C.ar    1  UNL1       -0.0003
     13 C          65.5942   94.0350   12.3469 C.3     1  UNL1        0.0437
     14 C          66.9612   94.3515   11.8167 C.3     1  UNL1        0.0768
     15 N          67.1129   94.9984   10.4719 N.3     1  UNL1       -0.2737
     16 C          66.7377   96.4085   10.1245 C.3     1  UNL1        0.0721
     17 C          67.0594   96.6304    8.6763 C.3     1  UNL1        0.0187
     18 C          67.6334   95.3574    8.1287 C.3     1  UNL1        0.0174
     19 C          67.6665   94.3487    9.2384 C.3     1  UNL1        0.0576
     20 C          68.1655   92.9381    9.1331 C.3     1  UNL1        0.0173
     21 S          62.9438   84.0914   14.4324 S.O2    1  UNL1        0.0087
     22 O          64.1162   83.6106   13.6298 O.2     1  UNL1       -0.1686
     23 O          61.7714   84.5722   15.2351 O.2     1  UNL1       -0.1686
     24 C          62.5652   82.6709   14.7304 C.3     1  UNL1        0.1585
     25 C          61.5526   81.9693   13.8746 C.3     1  UNL1        0.0578
     26 C          61.4296   80.4754   13.9303 C.3     1  UNL1        0.1441
     27 C          58.8575   80.3618   14.2792 C.3     1  UNL1        0.1741
     28 O          60.2333   79.8451   14.5797 O.3     1  UNL1       -0.3510
@<TRIPOS>BOND
     1    27    28    1
     2    28    26    1
     3    26    25    1
     4    25    24    1
     5    24    21    1
     6    21    22    2
     7    21    23    2
     8    21     1    1
     9     1     2   ar
    10     2     3   ar
    11     3     4   ar
    12     4     7    1
    13     7     8   ar
    14     8     9   ar
    15     9    10   ar
    16    10    13    1
    17    13    14    1
    18    14    15    1
    19    15    16    1
    20    16    17    1
    21    17    18    1
    22    18    19    1
    23    19    20    1
    24    10    11   ar
    25    11    12   ar
    26     4     5   ar
    27     5     6   ar
    28     6     1   ar
    29    12     7   ar
    30    19    15    1
