@<TRIPOS>MOLECULE
*****
 35 38 0 0 0
SMALL
GASTEIGER

@<TRIPOS>ATOM
      1 C          62.5658   84.9968   12.3746 C.3     1  UNL1        0.1532
      2 C          63.1572   78.7894   10.4078 C.3     1  UNL1        0.0189
      3 C          62.7964   79.9106   11.3366 C.3     1  UNL1        0.0742
      4 C          63.0420   81.3325   10.9268 C.3     1  UNL1        0.1091
      5 N          62.6811   82.4537   11.8556 N.am    1  UNL1       -0.2754
      6 C          62.9267   83.8756   11.4458 C.2     1  UNL1        0.2439
      7 O          63.5332   84.1763   10.1073 O.2     1  UNL1       -0.2731
      8 C          62.0746   82.1530   13.1942 C.3     1  UNL1        0.1105
      9 C          61.8290   80.7311   13.6039 C.3     1  UNL1        0.0904
     10 N          62.1899   79.6099   12.6751 N.3     1  UNL1       -0.2957
     11 H          61.3327   79.0860   12.4990 H       1  UNL1        0.1233
     12 N          61.9401   84.6971   13.7045 N.am    1  UNL1       -0.2978
     13 C          62.7349   84.8738   14.9643 C.2     1  UNL1        0.2257
     14 O          62.0355   84.5646   16.0769 O.2     1  UNL1       -0.2748
     15 H          61.0077   84.3843   13.7506 H       1  UNL1        0.1498
     16 C          64.1555   85.3502   14.8942 C.3     1  UNL1        0.0884
     17 C          65.6416   85.3269   14.6926 C.3     1  UNL1        0.0135
     18 C          64.8378   84.0766   14.4911 C.3     1  UNL1        0.0135
     19 C          63.9666   86.7893   15.2729 C.ar    1  UNL1       -0.0040
     20 C          64.3525   87.8745   14.3120 C.ar    1  UNL1       -0.0021
     21 C          64.1636   89.3136   14.6907 C.ar    1  UNL1        0.0111
     22 C          63.5888   89.6673   16.0303 C.ar    1  UNL1        0.0585
     23 CL         63.3999   91.1064   16.4090 Cl      1  UNL1       -0.0822
     24 C          63.2029   88.5821   16.9911 C.ar    1  UNL1        0.0225
     25 C          63.3918   87.1430   16.6125 C.ar    1  UNL1        0.0550
     26 CL         62.9987   86.2871   17.5796 Cl      1  UNL1       -0.0825
     27 C          62.8307   86.4177   11.9735 C.3     1  UNL1        0.0562
     28 C          62.0006   87.0620   10.9031 C.ar    1  UNL1       -0.0094
     29 C          61.0803   86.2269   10.0631 C.ar    1  UNL1       -0.0025
     30 C          60.2502   86.8713    8.9927 C.ar    1  UNL1        0.0111
     31 C          60.3405   88.3507    8.7622 C.ar    1  UNL1        0.0585
     32 CL         59.5104   88.9950    7.6918 Cl      1  UNL1       -0.0822
     33 C          61.2609   89.1858    9.6022 C.ar    1  UNL1        0.0225
     34 C          62.0909   88.5415   10.6727 C.ar    1  UNL1        0.0546
     35 CL         63.0113   89.3766   11.5126 Cl      1  UNL1       -0.0825
@<TRIPOS>BOND
     1     3     2    1
     2     3     4    1
     3     4     5    1
     4     5     6   am
     5     6     7    2
     6     6     1    1
     7     1    27    1
     8    27    28    1
     9    28    29   ar
    10    29    30   ar
    11    30    31   ar
    12    31    32    1
    13    31    33   ar
    14    33    34   ar
    15    34    35    1
    16     1    12    1
    17    12    13   am
    18    13    14    2
    19    13    16    1
    20    16    19    1
    21    19    20   ar
    22    20    21   ar
    23    21    22   ar
    24    22    23    1
    25    22    24   ar
    26    24    25   ar
    27    25    26    1
    28    16    17    1
    29    17    18    1
    30     5     8    1
    31     8     9    1
    32     9    10    1
    33    10     3    1
    34    34    28   ar
    35    18    16    1
    36    25    19   ar
    37    12    15    1
    38    10    11    1
@<TRIPOS>MOLECULE
*****
 35 38 0 0 0
SMALL
GASTEIGER

@<TRIPOS>ATOM
      1 C          63.0728   89.6577   12.4221 C.3     1  UNL1        0.1532
      2 C          66.6599   94.7797   10.5121 C.3     1  UNL1        0.0189
      3 C          66.1342   93.7452   11.4625 C.3     1  UNL1        0.0742
      4 C          65.1292   92.7361   10.9919 C.3     1  UNL1        0.1091
      5 N          64.6035   91.7015   11.9423 N.am    1  UNL1       -0.2754
      6 C          63.5985   90.6923   11.4716 C.2     1  UNL1        0.2439
      7 O          63.1191   90.7178   10.0505 O.2     1  UNL1       -0.2731
      8 C          65.0829   91.6760   13.3634 C.3     1  UNL1        0.1105
      9 C          66.0879   92.6852   13.8341 C.3     1  UNL1        0.0904
     10 N          66.6135   93.7197   12.8836 N.3     1  UNL1       -0.2957
     11 H          67.6262   93.6019   12.8507 H       1  UNL1        0.1233
     12 N          61.5948   89.5200   12.6384 N.am    1  UNL1       -0.2978
     13 C          60.8008   88.5602   11.8029 C.2     1  UNL1        0.2257
     14 O          59.4876   88.5501   12.1157 O.2     1  UNL1       -0.2748
     15 H          61.1460   90.0597   13.3288 H       1  UNL1        0.1498
     16 C          61.4846   87.7380   10.7511 C.3     1  UNL1        0.0884
     17 C          62.4078   86.7351   10.1251 C.3     1  UNL1        0.0135
     18 C          62.4114   86.9320   11.6121 C.3     1  UNL1        0.0135
     19 C          60.7953   88.2584    9.5247 C.ar    1  UNL1       -0.0040
     20 C          60.6946   89.7367    9.2912 C.ar    1  UNL1       -0.0021
     21 C          60.0053   90.2571    8.0648 C.ar    1  UNL1        0.0111
     22 C          59.4167   89.2991    7.0719 C.ar    1  UNL1        0.0585
     23 CL         58.7274   89.8195    5.8455 Cl      1  UNL1       -0.0822
     24 C          59.5174   87.8209    7.3053 C.ar    1  UNL1        0.0225
     25 C          60.2067   87.3005    8.5317 C.ar    1  UNL1        0.0550
     26 CL         60.2157   85.9522    8.5997 Cl      1  UNL1       -0.0825
     27 C          64.0250   88.7609   13.1562 C.3     1  UNL1        0.0562
     28 C          63.7122   88.3196   14.5552 C.ar    1  UNL1       -0.0094
     29 C          63.2642   89.3234   15.5758 C.ar    1  UNL1       -0.0025
     30 C          62.9514   88.8821   16.9749 C.ar    1  UNL1        0.0111
     31 C          63.0866   87.4369   17.3534 C.ar    1  UNL1        0.0585
     32 CL         62.7738   86.9956   18.7524 Cl      1  UNL1       -0.0822
     33 C          63.5346   86.4330   16.3327 C.ar    1  UNL1        0.0225
     34 C          63.8474   86.8744   14.9337 C.ar    1  UNL1        0.0546
     35 CL         64.2954   85.8706   13.9131 Cl      1  UNL1       -0.0825
@<TRIPOS>BOND
     1     3     2    1
     2     3     4    1
     3     4     5    1
     4     5     6   am
     5     6     7    2
     6     6     1    1
     7     1    27    1
     8    27    28    1
     9    28    29   ar
    10    29    30   ar
    11    30    31   ar
    12    31    32    1
    13    31    33   ar
    14    33    34   ar
    15    34    35    1
    16     1    12    1
    17    12    13   am
    18    13    14    2
    19    13    16    1
    20    16    19    1
    21    19    20   ar
    22    20    21   ar
    23    21    22   ar
    24    22    23    1
    25    22    24   ar
    26    24    25   ar
    27    25    26    1
    28    16    17    1
    29    17    18    1
    30     5     8    1
    31     8     9    1
    32     9    10    1
    33    10     3    1
    34    34    28   ar
    35    18    16    1
    36    25    19   ar
    37    12    15    1
    38    10    11    1
@<TRIPOS>MOLECULE
*****
 35 38 0 0 0
SMALL
GASTEIGER

@<TRIPOS>ATOM
      1 C          62.7755   89.4416   13.3713 C.3     1  UNL1        0.1532
      2 C          67.3226   93.3981   15.9051 C.3     1  UNL1        0.0189
      3 C          66.5931   92.6517   14.8277 C.3     1  UNL1        0.0742
      4 C          65.4138   91.7930   15.1769 C.3     1  UNL1        0.1091
      5 N          64.6843   91.0467   14.0995 N.am    1  UNL1       -0.2754
      6 C          63.5050   90.1879   14.4487 C.2     1  UNL1        0.2439
      7 O          63.0552   90.0756   15.8752 O.2     1  UNL1       -0.2731
      8 C          65.1341   91.1590   12.6729 C.3     1  UNL1        0.1105
      9 C          66.3134   92.0176   12.3238 C.3     1  UNL1        0.0904
     10 N          67.0429   92.7640   13.4012 N.3     1  UNL1       -0.2957
     11 H          66.9991   93.7530   13.1556 H       1  UNL1        0.1233
     12 N          61.3366   89.7540   13.0850 N.am    1  UNL1       -0.2978
     13 C          60.9110   90.1202   11.6941 C.2     1  UNL1        0.2257
     14 O          59.5884   90.3727   11.5965 O.2     1  UNL1       -0.2748
     15 H          60.6715   89.7186   13.8100 H       1  UNL1        0.1498
     16 C          61.9243   90.1741   10.5894 C.3     1  UNL1        0.0884
     17 C          63.0898   90.6383    9.7673 C.3     1  UNL1        0.0135
     18 C          62.7147   91.3743   11.0192 C.3     1  UNL1        0.0135
     19 C          61.4858   88.9926    9.7759 C.ar    1  UNL1       -0.0040
     20 C          62.2092   87.6847    9.9026 C.ar    1  UNL1       -0.0021
     21 C          61.7708   86.5031    9.0890 C.ar    1  UNL1        0.0111
     22 C          60.6089   86.6296    8.1488 C.ar    1  UNL1        0.0585
     23 CL         60.1704   85.4481    7.3353 Cl      1  UNL1       -0.0822
     24 C          59.8855   87.9375    8.0221 C.ar    1  UNL1        0.0225
     25 C          60.3239   89.1190    8.8356 C.ar    1  UNL1        0.0550
     26 CL         59.5764   90.2205    8.6114 Cl      1  UNL1       -0.0825
     27 C          63.4849   88.3828   12.5802 C.3     1  UNL1        0.0562
     28 C          63.4618   86.9570   13.0456 C.ar    1  UNL1       -0.0094
     29 C          62.6869   85.9292   12.2755 C.ar    1  UNL1       -0.0025
     30 C          62.6638   84.5034   12.7409 C.ar    1  UNL1        0.0111
     31 C          63.4156   84.1055   13.9764 C.ar    1  UNL1        0.0585
     32 CL         63.3925   82.6797   14.4417 Cl      1  UNL1       -0.0822
     33 C          64.1906   85.1333   14.7465 C.ar    1  UNL1        0.0225
     34 C          64.2137   86.5591   14.2811 C.ar    1  UNL1        0.0546
     35 CL         64.9886   87.5869   15.0512 Cl      1  UNL1       -0.0825
@<TRIPOS>BOND
     1     3     2    1
     2     3     4    1
     3     4     5    1
     4     5     6   am
     5     6     7    2
     6     6     1    1
     7     1    27    1
     8    27    28    1
     9    28    29   ar
    10    29    30   ar
    11    30    31   ar
    12    31    32    1
    13    31    33   ar
    14    33    34   ar
    15    34    35    1
    16     1    12    1
    17    12    13   am
    18    13    14    2
    19    13    16    1
    20    16    19    1
    21    19    20   ar
    22    20    21   ar
    23    21    22   ar
    24    22    23    1
    25    22    24   ar
    26    24    25   ar
    27    25    26    1
    28    16    17    1
    29    17    18    1
    30     5     8    1
    31     8     9    1
    32     9    10    1
    33    10     3    1
    34    34    28   ar
    35    18    16    1
    36    25    19   ar
    37    12    15    1
    38    10    11    1
@<TRIPOS>MOLECULE
*****
 35 38 0 0 0
SMALL
GASTEIGER

@<TRIPOS>ATOM
      1 C          63.1000   85.9349   12.9867 C.3     1  UNL1        0.1532
      2 C          65.4078   91.7890   14.7626 C.3     1  UNL1        0.0189
      3 C          64.5566   90.8192   13.9978 C.3     1  UNL1        0.0742
      4 C          64.6794   89.3469   14.2570 C.3     1  UNL1        0.1091
      5 N          63.8282   88.3771   13.4922 N.am    1  UNL1       -0.2754
      6 C          63.9512   86.9047   13.7515 C.2     1  UNL1        0.2439
      7 O          64.9252   86.4023   14.7755 O.2     1  UNL1       -0.2731
      8 C          62.8542   88.8796   12.4682 C.3     1  UNL1        0.1105
      9 C          62.7313   90.3518   12.2089 C.3     1  UNL1        0.0904
     10 N          63.5825   91.3217   12.9738 N.3     1  UNL1       -0.2957
     11 H          62.9455   91.9538   13.4585 H       1  UNL1        0.1233
     12 N          62.0480   85.1369   13.6984 N.am    1  UNL1       -0.2978
     13 C          62.3748   83.7746   14.2345 C.2     1  UNL1        0.2257
     14 O          61.3271   83.1838   14.8475 O.2     1  UNL1       -0.2748
     15 H          61.1431   85.5072   13.8137 H       1  UNL1        0.1498
     16 C          63.7534   83.2103   14.0589 C.3     1  UNL1        0.0884
     17 C          65.2160   82.9665   14.2853 C.3     1  UNL1        0.0135
     18 C          64.4740   83.9370   15.1555 C.3     1  UNL1        0.0135
     19 C          63.5117   82.2876   12.9012 C.ar    1  UNL1       -0.0040
     20 C          63.8574   82.7250   11.5087 C.ar    1  UNL1       -0.0021
     21 C          63.6156   81.8023   10.3509 C.ar    1  UNL1        0.0111
     22 C          63.0283   80.4422   10.5859 C.ar    1  UNL1        0.0585
     23 CL         62.7866   79.5195    9.4282 Cl      1  UNL1       -0.0822
     24 C          62.6826   80.0049   11.9784 C.ar    1  UNL1        0.0225
     25 C          62.9243   80.9275   13.1361 C.ar    1  UNL1        0.0550
     26 CL         62.5631   80.3923   14.3217 Cl      1  UNL1       -0.0825
     27 C          63.3007   85.7632   11.5101 C.3     1  UNL1        0.0562
     28 C          62.2047   86.1352   10.5559 C.ar    1  UNL1       -0.0094
     29 C          61.0323   86.9379   11.0365 C.ar    1  UNL1       -0.0025
     30 C          59.9364   87.3100   10.0823 C.ar    1  UNL1        0.0111
     31 C          60.0129   86.8793    8.6476 C.ar    1  UNL1        0.0585
     32 CL         58.9169   87.2514    7.6934 Cl      1  UNL1       -0.0822
     33 C          61.1853   86.0766    8.1669 C.ar    1  UNL1        0.0225
     34 C          62.2813   85.7045    9.1211 C.ar    1  UNL1        0.0546
     35 CL         63.4537   84.9019    8.6405 Cl      1  UNL1       -0.0825
@<TRIPOS>BOND
     1     3     2    1
     2     3     4    1
     3     4     5    1
     4     5     6   am
     5     6     7    2
     6     6     1    1
     7     1    27    1
     8    27    28    1
     9    28    29   ar
    10    29    30   ar
    11    30    31   ar
    12    31    32    1
    13    31    33   ar
    14    33    34   ar
    15    34    35    1
    16     1    12    1
    17    12    13   am
    18    13    14    2
    19    13    16    1
    20    16    19    1
    21    19    20   ar
    22    20    21   ar
    23    21    22   ar
    24    22    23    1
    25    22    24   ar
    26    24    25   ar
    27    25    26    1
    28    16    17    1
    29    17    18    1
    30     5     8    1
    31     8     9    1
    32     9    10    1
    33    10     3    1
    34    34    28   ar
    35    18    16    1
    36    25    19   ar
    37    12    15    1
    38    10    11    1
@<TRIPOS>MOLECULE
*****
 35 38 0 0 0
SMALL
GASTEIGER

@<TRIPOS>ATOM
      1 C          63.1436   89.7616   12.5058 C.3     1  UNL1        0.1532
      2 C          66.6093   95.0390   10.8064 C.3     1  UNL1        0.0189
      3 C          66.2318   93.8495   11.6386 C.3     1  UNL1        0.0742
      4 C          65.0652   92.9951   11.2400 C.3     1  UNL1        0.1091
      5 N          64.6878   91.8056   12.0722 N.am    1  UNL1       -0.2754
      6 C          63.5211   90.9511   11.6736 C.2     1  UNL1        0.2439
      7 O          62.7321   91.2861   10.4427 O.2     1  UNL1       -0.2731
      8 C          65.4768   91.4706   13.3031 C.3     1  UNL1        0.1105
      9 C          66.6434   92.3251   13.7017 C.3     1  UNL1        0.0904
     10 N          67.0209   93.5146   12.8695 N.3     1  UNL1       -0.2957
     11 H          67.9855   93.3707   12.5708 H       1  UNL1        0.1233
     12 N          61.7126   89.3167   12.5727 N.am    1  UNL1       -0.2978
     13 C          61.1671   88.3860   11.5306 C.2     1  UNL1        0.2257
     14 O          59.8673   88.0784   11.7266 O.2     1  UNL1       -0.2748
     15 H          61.1315   89.6357   13.3006 H       1  UNL1        0.1498
     16 C          62.0525   87.9000   10.4216 C.3     1  UNL1        0.0884
     17 C          62.8533   87.9027    9.1533 C.3     1  UNL1        0.0135
     18 C          62.1164   89.1383    9.5776 C.3     1  UNL1        0.0135
     19 C          62.2961   86.4928   10.8804 C.ar    1  UNL1       -0.0040
     20 C          62.1830   86.1483   12.3359 C.ar    1  UNL1       -0.0021
     21 C          62.4267   84.7411   12.7947 C.ar    1  UNL1        0.0111
     22 C          62.7834   83.6785   11.7980 C.ar    1  UNL1        0.0585
     23 CL         63.0271   82.2713   12.2568 Cl      1  UNL1       -0.0822
     24 C          62.8966   84.0230   10.3425 C.ar    1  UNL1        0.0225
     25 C          62.6529   85.4301    9.8837 C.ar    1  UNL1        0.0550
     26 CL         62.7920   85.5815    8.5494 Cl      1  UNL1       -0.0825
     27 C          64.1970   89.0170   13.2712 C.3     1  UNL1        0.0562
     28 C          63.8650   88.3994   14.5972 C.ar    1  UNL1       -0.0094
     29 C          64.0068   86.9189   14.7916 C.ar    1  UNL1       -0.0025
     30 C          63.6748   86.3013   16.1176 C.ar    1  UNL1        0.0111
     31 C          63.2010   87.1643   17.2493 C.ar    1  UNL1        0.0585
     32 CL         62.8690   86.5467   18.5753 Cl      1  UNL1       -0.0822
     33 C          63.0592   88.6449   17.0550 C.ar    1  UNL1        0.0225
     34 C          63.3913   89.2625   15.7289 C.ar    1  UNL1        0.0546
     35 CL         63.2495   90.7430   15.5346 Cl      1  UNL1       -0.0825
@<TRIPOS>BOND
     1     3     2    1
     2     3     4    1
     3     4     5    1
     4     5     6   am
     5     6     7    2
     6     6     1    1
     7     1    27    1
     8    27    28    1
     9    28    29   ar
    10    29    30   ar
    11    30    31   ar
    12    31    32    1
    13    31    33   ar
    14    33    34   ar
    15    34    35    1
    16     1    12    1
    17    12    13   am
    18    13    14    2
    19    13    16    1
    20    16    19    1
    21    19    20   ar
    22    20    21   ar
    23    21    22   ar
    24    22    23    1
    25    22    24   ar
    26    24    25   ar
    27    25    26    1
    28    16    17    1
    29    17    18    1
    30     5     8    1
    31     8     9    1
    32     9    10    1
    33    10     3    1
    34    34    28   ar
    35    18    16    1
    36    25    19   ar
    37    12    15    1
    38    10    11    1
@<TRIPOS>MOLECULE
*****
 35 38 0 0 0
SMALL
GASTEIGER

@<TRIPOS>ATOM
      1 C          62.3621   86.3591   11.8655 C.3     1  UNL1        0.1532
      2 C          63.1448   80.1266   13.6803 C.3     1  UNL1        0.0189
      3 C          62.8473   81.5857   13.8604 C.3     1  UNL1        0.0742
      4 C          62.9022   82.5133   12.6829 C.3     1  UNL1        0.1091
      5 N          62.6047   83.9724   12.8630 N.am    1  UNL1       -0.2754
      6 C          62.6596   84.9000   11.6854 C.2     1  UNL1        0.2439
      7 O          63.0119   84.3684   10.3278 O.2     1  UNL1       -0.2731
      8 C          62.2523   84.5040   14.2206 C.3     1  UNL1        0.1105
      9 C          62.1974   83.5764   15.3981 C.3     1  UNL1        0.0904
     10 N          62.4949   82.1173   15.2180 N.3     1  UNL1       -0.2957
     11 H          61.6676   81.6076   15.5281 H       1  UNL1        0.1233
     12 N          60.9409   86.8271   11.9727 N.am    1  UNL1       -0.2978
     13 C          60.4261   87.8816   11.0384 C.2     1  UNL1        0.2257
     14 O          59.1319   88.1957   11.2594 O.2     1  UNL1       -0.2748
     15 H          60.3461   86.4421   12.6563 H       1  UNL1        0.1498
     16 C          61.3323   88.4682    9.9970 C.3     1  UNL1        0.0884
     17 C          62.2341   89.4443    9.3013 C.3     1  UNL1        0.0135
     18 C          61.6342   89.7937   10.6310 C.3     1  UNL1        0.0135
     19 C          61.3452   87.3464    9.0012 C.ar    1  UNL1       -0.0040
     20 C          62.6128   86.5871    8.7434 C.ar    1  UNL1       -0.0021
     21 C          62.6257   85.4652    7.7476 C.ar    1  UNL1        0.0111
     22 C          61.3710   85.1030    7.0098 C.ar    1  UNL1        0.0585
     23 CL         61.3839   83.9812    6.0140 Cl      1  UNL1       -0.0822
     24 C          60.1034   85.8623    7.2676 C.ar    1  UNL1        0.0225
     25 C          60.0905   86.9841    8.2634 C.ar    1  UNL1        0.0550
     26 CL         58.8795   87.5685    8.3840 Cl      1  UNL1       -0.0825
     27 C          63.4856   87.3502   11.9384 C.3     1  UNL1        0.0562
     28 C          63.5775   88.2957   13.0993 C.ar    1  UNL1       -0.0094
     29 C          63.1510   89.7247   12.9381 C.ar    1  UNL1       -0.0025
     30 C          63.2429   90.6703   14.0990 C.ar    1  UNL1        0.0111
     31 C          63.7612   90.1868   15.4209 C.ar    1  UNL1        0.0585
     32 CL         63.8531   91.1324   16.5817 Cl      1  UNL1       -0.0822
     33 C          64.1877   88.7577   15.5821 C.ar    1  UNL1        0.0225
     34 C          64.0958   87.8122   14.4213 C.ar    1  UNL1        0.0546
     35 CL         64.5222   86.3832   14.5824 Cl      1  UNL1       -0.0825
@<TRIPOS>BOND
     1     3     2    1
     2     3     4    1
     3     4     5    1
     4     5     6   am
     5     6     7    2
     6     6     1    1
     7     1    27    1
     8    27    28    1
     9    28    29   ar
    10    29    30   ar
    11    30    31   ar
    12    31    32    1
    13    31    33   ar
    14    33    34   ar
    15    34    35    1
    16     1    12    1
    17    12    13   am
    18    13    14    2
    19    13    16    1
    20    16    19    1
    21    19    20   ar
    22    20    21   ar
    23    21    22   ar
    24    22    23    1
    25    22    24   ar
    26    24    25   ar
    27    25    26    1
    28    16    17    1
    29    17    18    1
    30     5     8    1
    31     8     9    1
    32     9    10    1
    33    10     3    1
    34    34    28   ar
    35    18    16    1
    36    25    19   ar
    37    12    15    1
    38    10    11    1
@<TRIPOS>MOLECULE
*****
 35 38 0 0 0
SMALL
GASTEIGER

@<TRIPOS>ATOM
      1 C          62.6291   85.8190   11.7420 C.3     1  UNL1        0.1532
      2 C          62.1004   84.0812    5.4610 C.3     1  UNL1        0.0189
      3 C          61.7253   84.7874    6.7301 C.3     1  UNL1        0.0742
      4 C          62.5523   84.5971    7.9669 C.3     1  UNL1        0.1091
      5 N          62.1772   85.3032    9.2361 N.am    1  UNL1       -0.2754
      6 C          63.0043   85.1129   10.4729 C.2     1  UNL1        0.2439
      7 O          64.2064   84.2164   10.4406 O.2     1  UNL1       -0.2731
      8 C          60.9750   86.1997    9.2683 C.3     1  UNL1        0.1105
      9 C          60.1480   86.3900    8.0315 C.3     1  UNL1        0.0904
     10 N          60.5231   85.6838    6.7624 N.3     1  UNL1       -0.2957
     11 H          60.6749   86.4055    6.0577 H       1  UNL1        0.1233
     12 N          61.9286   85.0712   12.8375 N.am    1  UNL1       -0.2978
     13 C          62.6610   84.7331   14.1021 C.2     1  UNL1        0.2257
     14 O          61.8981   84.0605   14.9898 O.2     1  UNL1       -0.2748
     15 H          60.9881   84.8022   12.7265 H       1  UNL1        0.1498
     16 C          64.0940   85.1428   14.2712 C.3     1  UNL1        0.0884
     17 C          65.5919   85.0870   14.2159 C.3     1  UNL1        0.0135
     18 C          64.7787   83.9446   13.6835 C.3     1  UNL1        0.0135
     19 C          63.9071   86.4834   14.9177 C.ar    1  UNL1       -0.0040
     20 C          64.3211   87.7298   14.1932 C.ar    1  UNL1       -0.0021
     21 C          64.1342   89.0704   14.8397 C.ar    1  UNL1        0.0111
     22 C          63.5332   89.1644   16.2108 C.ar    1  UNL1        0.0585
     23 CL         63.3462   90.5049   16.8573 Cl      1  UNL1       -0.0822
     24 C          63.1191   87.9180   16.9354 C.ar    1  UNL1        0.0225
     25 C          63.3061   86.5775   16.2889 C.ar    1  UNL1        0.0550
     26 CL         62.8863   85.5549   17.0639 Cl      1  UNL1       -0.0825
     27 C          62.9545   87.2729   11.9157 C.3     1  UNL1        0.0562
     28 C          61.8701   88.3030   11.8012 C.ar    1  UNL1       -0.0094
     29 C          60.4306   87.8882   11.8765 C.ar    1  UNL1       -0.0025
     30 C          59.3463   88.9183   11.7620 C.ar    1  UNL1        0.0111
     31 C          59.7014   90.3632   11.5722 C.ar    1  UNL1        0.0585
     32 CL         58.6171   91.3933   11.4577 Cl      1  UNL1       -0.0822
     33 C          61.1410   90.7781   11.4968 C.ar    1  UNL1        0.0225
     34 C          62.2253   89.7480   11.6113 C.ar    1  UNL1        0.0546
     35 CL         63.6648   90.1628   11.5359 Cl      1  UNL1       -0.0825
@<TRIPOS>BOND
     1     3     2    1
     2     3     4    1
     3     4     5    1
     4     5     6   am
     5     6     7    2
     6     6     1    1
     7     1    27    1
     8    27    28    1
     9    28    29   ar
    10    29    30   ar
    11    30    31   ar
    12    31    32    1
    13    31    33   ar
    14    33    34   ar
    15    34    35    1
    16     1    12    1
    17    12    13   am
    18    13    14    2
    19    13    16    1
    20    16    19    1
    21    19    20   ar
    22    20    21   ar
    23    21    22   ar
    24    22    23    1
    25    22    24   ar
    26    24    25   ar
    27    25    26    1
    28    16    17    1
    29    17    18    1
    30     5     8    1
    31     8     9    1
    32     9    10    1
    33    10     3    1
    34    34    28   ar
    35    18    16    1
    36    25    19   ar
    37    12    15    1
    38    10    11    1
@<TRIPOS>MOLECULE
*****
 35 38 0 0 0
SMALL
GASTEIGER

@<TRIPOS>ATOM
      1 C          62.6114   86.3989   12.3735 C.3     1  UNL1        0.1532
      2 C          59.5212   88.8517    7.1597 C.3     1  UNL1        0.0189
      3 C          60.0194   88.8167    8.5741 C.3     1  UNL1        0.0742
      4 C          60.8171   87.6428    9.0594 C.3     1  UNL1        0.1091
      5 N          61.3153   87.6078   10.4738 N.am    1  UNL1       -0.2754
      6 C          62.1132   86.4339   10.9591 C.2     1  UNL1        0.2439
      7 O          62.4127   85.2951   10.0300 O.2     1  UNL1       -0.2731
      8 C          61.0158   88.7467   11.4029 C.3     1  UNL1        0.1105
      9 C          60.2180   89.9205   10.9176 C.3     1  UNL1        0.0904
     10 N          59.7198   89.9555    9.5032 N.3     1  UNL1       -0.2957
     11 H          60.1089   90.7953    9.0746 H       1  UNL1        0.1233
     12 N          61.8489   85.6396   13.4187 N.am    1  UNL1       -0.2978
     13 C          62.5022   84.5011   14.1446 C.2     1  UNL1        0.2257
     14 O          61.6900   83.9191   15.0524 O.2     1  UNL1       -0.2748
     15 H          60.9197   85.8886   13.6282 H       1  UNL1        0.1498
     16 C          63.9179   84.1218   13.8255 C.3     1  UNL1        0.0884
     17 C          65.4172   84.1092   13.8668 C.3     1  UNL1        0.0135
     18 C          64.6505   85.0458   14.7526 C.3     1  UNL1        0.0135
     19 C          63.6770   83.0661   12.7875 C.ar    1  UNL1       -0.0040
     20 C          64.1231   83.2895   11.3729 C.ar    1  UNL1       -0.0021
     21 C          63.8822   82.2337   10.3349 C.ar    1  UNL1        0.0111
     22 C          63.1953   80.9545   10.7117 C.ar    1  UNL1        0.0585
     23 CL         62.9545   79.8988    9.6737 Cl      1  UNL1       -0.0822
     24 C          62.7493   80.7311   12.1262 C.ar    1  UNL1        0.0225
     25 C          62.9901   81.7869   13.1642 C.ar    1  UNL1        0.0550
     26 CL         62.5330   81.4394   14.3860 Cl      1  UNL1       -0.0825
     27 C          63.8719   87.1231   12.7428 C.3     1  UNL1        0.0562
     28 C          63.8262   88.2543   13.7269 C.ar    1  UNL1       -0.0094
     29 C          63.8049   87.9673   15.1990 C.ar    1  UNL1       -0.0025
     30 C          63.7592   89.0985   16.1830 C.ar    1  UNL1        0.0111
     31 C          63.7349   90.5166   15.6950 C.ar    1  UNL1        0.0585
     32 CL         63.6892   91.6478   16.6790 Cl      1  UNL1       -0.0822
     33 C          63.7562   90.8036   14.2228 C.ar    1  UNL1        0.0225
     34 C          63.8019   89.6725   13.2388 C.ar    1  UNL1        0.0546
     35 CL         63.8232   89.9594   11.7666 Cl      1  UNL1       -0.0825
@<TRIPOS>BOND
     1     3     2    1
     2     3     4    1
     3     4     5    1
     4     5     6   am
     5     6     7    2
     6     6     1    1
     7     1    27    1
     8    27    28    1
     9    28    29   ar
    10    29    30   ar
    11    30    31   ar
    12    31    32    1
    13    31    33   ar
    14    33    34   ar
    15    34    35    1
    16     1    12    1
    17    12    13   am
    18    13    14    2
    19    13    16    1
    20    16    19    1
    21    19    20   ar
    22    20    21   ar
    23    21    22   ar
    24    22    23    1
    25    22    24   ar
    26    24    25   ar
    27    25    26    1
    28    16    17    1
    29    17    18    1
    30     5     8    1
    31     8     9    1
    32     9    10    1
    33    10     3    1
    34    34    28   ar
    35    18    16    1
    36    25    19   ar
    37    12    15    1
    38    10    11    1
@<TRIPOS>MOLECULE
*****
 35 38 0 0 0
SMALL
GASTEIGER

@<TRIPOS>ATOM
      1 C          62.6793   88.0720   12.3957 C.3     1  UNL1        0.1532
      2 C          64.8035   92.6541   16.5481 C.3     1  UNL1        0.0189
      3 C          64.1423   91.3737   16.1319 C.3     1  UNL1        0.0742
      4 C          64.0720   91.0033   14.6801 C.3     1  UNL1        0.1091
      5 N          63.4108   89.7228   14.2639 N.am    1  UNL1       -0.2754
      6 C          63.3405   89.3525   12.8119 C.2     1  UNL1        0.2439
      7 O          63.9315   90.2626   11.7763 O.2     1  UNL1       -0.2731
      8 C          62.8199   88.8128   15.2995 C.3     1  UNL1        0.1105
      9 C          62.8902   89.1831   16.7513 C.3     1  UNL1        0.0904
     10 N          63.5514   90.4636   17.1675 N.3     1  UNL1       -0.2957
     11 H          64.3076   90.2112   17.8037 H       1  UNL1        0.1233
     12 N          61.1834   87.9616   12.4089 N.am    1  UNL1       -0.2978
     13 C          60.3851   88.4485   11.2361 C.2     1  UNL1        0.2257
     14 O          59.0553   88.2812   11.3973 O.2     1  UNL1       -0.2748
     15 H          60.7256   87.5696   13.1873 H       1  UNL1        0.1498
     16 C          61.0826   89.0458   10.0500 C.3     1  UNL1        0.0884
     17 C          61.7560   90.0606    9.1745 C.3     1  UNL1        0.0135
     18 C          61.2554   90.4556   10.5322 C.3     1  UNL1        0.0135
     19 C          61.1520   87.8434    9.1559 C.ar    1  UNL1       -0.0040
     20 C          62.3514   86.9438    9.2006 C.ar    1  UNL1       -0.0021
     21 C          62.4208   85.7413    8.3064 C.ar    1  UNL1        0.0111
     22 C          61.2908   85.4387    7.3676 C.ar    1  UNL1        0.0585
     23 CL         61.3602   84.2364    6.4734 Cl      1  UNL1       -0.0822
     24 C          60.0914   86.3384    7.3228 C.ar    1  UNL1        0.0225
     25 C          60.0220   87.5408    8.2170 C.ar    1  UNL1        0.0550
     26 CL         58.8834   88.2492    8.0609 Cl      1  UNL1       -0.0825
     27 C          63.5140   86.9020   11.9663 C.3     1  UNL1        0.0562
     28 C          63.2576   85.5438   12.5489 C.ar    1  UNL1       -0.0094
     29 C          62.5030   84.5180   11.7563 C.ar    1  UNL1       -0.0025
     30 C          62.2466   83.1597   12.3389 C.ar    1  UNL1        0.0111
     31 C          62.7448   82.8273   13.7141 C.ar    1  UNL1        0.0585
     32 CL         62.4884   81.4690   14.2967 Cl      1  UNL1       -0.0822
     33 C          63.4994   83.8531   14.5068 C.ar    1  UNL1        0.0225
     34 C          63.7558   85.2114   13.9242 C.ar    1  UNL1        0.0546
     35 CL         64.5103   86.2372   14.7168 Cl      1  UNL1       -0.0825
@<TRIPOS>BOND
     1     3     2    1
     2     3     4    1
     3     4     5    1
     4     5     6   am
     5     6     7    2
     6     6     1    1
     7     1    27    1
     8    27    28    1
     9    28    29   ar
    10    29    30   ar
    11    30    31   ar
    12    31    32    1
    13    31    33   ar
    14    33    34   ar
    15    34    35    1
    16     1    12    1
    17    12    13   am
    18    13    14    2
    19    13    16    1
    20    16    19    1
    21    19    20   ar
    22    20    21   ar
    23    21    22   ar
    24    22    23    1
    25    22    24   ar
    26    24    25   ar
    27    25    26    1
    28    16    17    1
    29    17    18    1
    30     5     8    1
    31     8     9    1
    32     9    10    1
    33    10     3    1
    34    34    28   ar
    35    18    16    1
    36    25    19   ar
    37    12    15    1
    38    10    11    1
