@<TRIPOS>MOLECULE
*****
 36 39 0 0 0
SMALL
GASTEIGER

@<TRIPOS>ATOM
      1 N          63.0966   83.3054   13.6315 N.ar    1  UNL1       -0.2962
      2 C          63.8439   83.4499   14.9240 C.ar    1  UNL1        0.1797
      3 N          64.1735   84.9015   15.1092 N.ar    1  UNL1       -0.2195
      4 C          63.6299   85.6541   13.9310 C.ar    1  UNL1        0.1484
      5 C          63.6550   87.1103   13.5718 C.ar    1  UNL1        0.1524
      6 N          63.0145   87.5799   12.2993 N.ar    1  UNL1       -0.1974
      7 C          62.3490   86.5936   11.3861 C.ar    1  UNL1        0.2195
      8 N          62.3239   85.1374   11.7453 N.ar    1  UNL1       -0.1947
      9 C          62.9644   84.6677   13.0177 C.ar    1  UNL1        0.1684
     10 C          61.6329   81.1703   13.8521 C.3     1  UNL1        0.0246
     11 C          62.5735   82.0236   13.0540 C.3     1  UNL1        0.0885
     12 C          62.9909   81.5953   11.6784 C.3     1  UNL1        0.0246
     13 N          64.3205   88.0967   14.4850 N.pl3   1  UNL1       -0.3131
     14 H          65.0721   87.8119   15.0535 H       1  UNL1        0.1485
     15 C          63.8408   89.5172   14.5321 C.3     1  UNL1        0.1154
     16 C          64.4687   90.5505   13.6444 C.ar    1  UNL1       -0.0026
     17 C          65.7212   91.2519   14.0792 C.ar    1  UNL1       -0.0026
     18 C          66.3490   92.2852   13.1915 C.ar    1  UNL1        0.0012
     19 C          65.7242   92.6172   11.8688 C.ar    1  UNL1        0.0176
     20 C          64.4716   91.9159   11.4340 C.ar    1  UNL1        0.0012
     21 C          63.8439   90.8825   12.3218 C.ar    1  UNL1       -0.0026
     22 C          66.3519   93.6505   10.9811 C.ar    1  UNL1        0.0813
     23 C          67.2329   93.2267    9.8434 C.ar    1  UNL1        0.0191
     24 C          67.8607   94.2600    8.9557 C.ar    1  UNL1        0.0031
     25 C          67.6075   95.7172    9.2056 C.ar    1  UNL1        0.0207
     26 C          66.7265   96.1410   10.3433 C.ar    1  UNL1        0.0988
     27 N          66.0988   95.1078   11.2310 N.ar    1  UNL1       -0.2438
     28 N          61.7086   87.0633   10.1135 N.pl3   1  UNL1       -0.3005
     29 H          62.1918   86.9811    9.2597 H       1  UNL1        0.1497
     30 C          60.3319   87.6582   10.1419 C.3     1  UNL1        0.1215
     31 C          60.1447   89.0979   10.5189 C.3     1  UNL1        0.1591
     32 O          60.3632   90.1750    9.4981 O.3     1  UNL1       -0.3802
     33 H          60.6190   89.7728    8.6533 H       1  UNL1        0.2105
     34 C          59.7389   89.4605   11.9168 C.3     1  UNL1        0.1680
     35 O          60.7852   89.7916   12.9393 O.3     1  UNL1       -0.3795
     36 H          61.3177   89.0023   13.1244 H       1  UNL1        0.2105
@<TRIPOS>BOND
     1    10    11    1
     2    11    12    1
     3    11     1    1
     4     1     2   ar
     5     2     3   ar
     6     3     4   ar
     7     4     5   ar
     8     5    13    1
     9    13    15    1
    10    15    16    1
    11    16    17   ar
    12    17    18   ar
    13    18    19   ar
    14    19    22    1
    15    22    23   ar
    16    23    24   ar
    17    24    25   ar
    18    25    26   ar
    19    26    27   ar
    20    19    20   ar
    21    20    21   ar
    22     5     6   ar
    23     6     7   ar
    24     7    28    1
    25    28    30    1
    26    30    31    1
    27    31    32    1
    28    31    34    1
    29    34    35    1
    30     7     8   ar
    31     8     9   ar
    32     9     1   ar
    33     9     4   ar
    34    21    16   ar
    35    27    22   ar
    36    13    14    1
    37    28    29    1
    38    32    33    1
    39    35    36    1
@<TRIPOS>MOLECULE
*****
 36 39 0 0 0
SMALL
GASTEIGER

@<TRIPOS>ATOM
      1 N          65.7626   92.9642   11.6323 N.ar    1  UNL1       -0.2962
      2 C          66.4003   92.8713   12.9868 C.ar    1  UNL1        0.1797
      3 N          65.6491   91.8460   13.7835 N.ar    1  UNL1       -0.2195
      4 C          64.5472   91.3053   12.9213 C.ar    1  UNL1        0.1484
      5 C          63.4890   90.2729   13.1750 C.ar    1  UNL1        0.1524
      6 N          62.5009   89.9317   12.0992 N.ar    1  UNL1       -0.1974
      7 C          62.5711   90.6227   10.7698 C.ar    1  UNL1        0.2195
      8 N          63.6293   91.6551   10.5161 N.ar    1  UNL1       -0.1947
      9 C          64.6173   91.9964   11.5918 C.ar    1  UNL1        0.1684
     10 C          65.6020   95.2387   10.3869 C.3     1  UNL1        0.0246
     11 C          66.1944   93.8666   10.5146 C.3     1  UNL1        0.0885
     12 C          67.2186   93.3968    9.5245 C.3     1  UNL1        0.0246
     13 N          63.4188   89.5818   14.5045 N.pl3   1  UNL1       -0.3131
     14 H          62.7376   89.8494   15.1630 H       1  UNL1        0.1485
     15 C          64.3865   88.4831   14.8306 C.3     1  UNL1        0.1154
     16 C          64.0720   87.0679   14.4452 C.ar    1  UNL1       -0.0026
     17 C          63.4919   86.7696   13.0944 C.ar    1  UNL1       -0.0026
     18 C          63.1775   85.3546   12.7091 C.ar    1  UNL1        0.0012
     19 C          63.4431   84.2376   13.6745 C.ar    1  UNL1        0.0176
     20 C          64.0232   84.5359   15.0252 C.ar    1  UNL1        0.0012
     21 C          64.3377   85.9511   15.4106 C.ar    1  UNL1       -0.0026
     22 C          63.1287   82.8225   13.2892 C.ar    1  UNL1        0.0813
     23 C          63.2600   82.3876   11.8595 C.ar    1  UNL1        0.0191
     24 C          62.9456   80.9725   11.4742 C.ar    1  UNL1        0.0031
     25 C          62.4999   79.9922   12.5184 C.ar    1  UNL1        0.0207
     26 C          62.3686   80.4271   13.9480 C.ar    1  UNL1        0.0988
     27 N          62.6830   81.8422   14.3334 N.ar    1  UNL1       -0.2438
     28 N          61.5829   90.2814    9.6940 N.pl3   1  UNL1       -0.3005
     29 H          61.3077   90.9667    9.0430 H       1  UNL1        0.1497
     30 C          61.0142   88.8959    9.6101 C.3     1  UNL1        0.1215
     31 C          60.1367   88.5141    8.4551 C.3     1  UNL1        0.1591
     32 O          59.7601   89.5403    7.4280 O.3     1  UNL1       -0.3802
     33 H          60.1641   90.3916    7.6582 H       1  UNL1        0.2105
     34 C          59.6358   87.1059    8.3273 C.3     1  UNL1        0.1680
     35 O          58.3120   86.8371    7.6751 O.3     1  UNL1       -0.3795
     36 H          57.6018   87.2134    8.2181 H       1  UNL1        0.2105
@<TRIPOS>BOND
     1    10    11    1
     2    11    12    1
     3    11     1    1
     4     1     2   ar
     5     2     3   ar
     6     3     4   ar
     7     4     5   ar
     8     5    13    1
     9    13    15    1
    10    15    16    1
    11    16    17   ar
    12    17    18   ar
    13    18    19   ar
    14    19    22    1
    15    22    23   ar
    16    23    24   ar
    17    24    25   ar
    18    25    26   ar
    19    26    27   ar
    20    19    20   ar
    21    20    21   ar
    22     5     6   ar
    23     6     7   ar
    24     7    28    1
    25    28    30    1
    26    30    31    1
    27    31    32    1
    28    31    34    1
    29    34    35    1
    30     7     8   ar
    31     8     9   ar
    32     9     1   ar
    33     9     4   ar
    34    21    16   ar
    35    27    22   ar
    36    13    14    1
    37    28    29    1
    38    32    33    1
    39    35    36    1
@<TRIPOS>MOLECULE
*****
 36 39 0 0 0
SMALL
GASTEIGER

@<TRIPOS>ATOM
      1 N          65.9254   93.5008   11.7105 N.ar    1  UNL1       -0.2962
      2 C          66.4568   93.4409   13.1120 C.ar    1  UNL1        0.1797
      3 N          65.7101   92.3663   13.8453 N.ar    1  UNL1       -0.2195
      4 C          64.7172   91.7621   12.8971 C.ar    1  UNL1        0.1484
      5 C          63.7092   90.6640   13.0645 C.ar    1  UNL1        0.1524
      6 N          62.8342   90.2671   11.9126 N.ar    1  UNL1       -0.1974
      7 C          62.9673   90.9682   10.5934 C.ar    1  UNL1        0.2195
      8 N          63.9754   92.0663   10.4258 N.ar    1  UNL1       -0.1947
      9 C          64.8503   92.4632   11.5777 C.ar    1  UNL1        0.1684
     10 C          67.3868   93.9684    9.6139 C.3     1  UNL1        0.0246
     11 C          66.3880   94.4343   10.6314 C.3     1  UNL1        0.0885
     12 C          65.8517   95.8338   10.5696 C.3     1  UNL1        0.0246
     13 N          63.5761   89.9629   14.3839 N.pl3   1  UNL1       -0.3131
     14 H          62.8647   90.2259   15.0116 H       1  UNL1        0.1485
     15 C          64.5268   88.8609   14.7469 C.3     1  UNL1        0.1154
     16 C          64.1692   87.4343   14.4519 C.ar    1  UNL1       -0.0026
     17 C          64.4662   86.3630   15.4588 C.ar    1  UNL1       -0.0026
     18 C          64.1086   84.9365   15.1637 C.ar    1  UNL1        0.0012
     19 C          63.4539   84.5813   13.8616 C.ar    1  UNL1        0.0176
     20 C          63.1570   85.6526   12.8547 C.ar    1  UNL1        0.0012
     21 C          63.5146   87.0792   13.1498 C.ar    1  UNL1       -0.0026
     22 C          63.0963   83.1548   13.5666 C.ar    1  UNL1        0.0813
     23 C          62.1555   82.4149   14.4708 C.ar    1  UNL1        0.0191
     24 C          61.7979   80.9884   14.1757 C.ar    1  UNL1        0.0031
     25 C          62.3811   80.3017   12.9764 C.ar    1  UNL1        0.0207
     26 C          63.3218   81.0415   12.0722 C.ar    1  UNL1        0.0988
     27 N          63.6795   82.4680   12.3672 N.ar    1  UNL1       -0.2438
     28 N          62.0922   90.5713    9.4414 N.pl3   1  UNL1       -0.3005
     29 H          62.2124   90.9976    8.5622 H       1  UNL1        0.1497
     30 C          61.0341   89.5248    9.6291 C.3     1  UNL1        0.1215
     31 C          60.0577   89.6402   10.7619 C.3     1  UNL1        0.1591
     32 O          59.3980   90.9557   11.0523 O.3     1  UNL1       -0.3802
     33 H          59.7110   91.6210   10.4197 H       1  UNL1        0.2105
     34 C          59.7410   88.4401   11.6043 C.3     1  UNL1        0.1680
     35 O          58.7871   88.5624   12.7554 O.3     1  UNL1       -0.3795
     36 H          59.1711   89.1400   13.4335 H       1  UNL1        0.2105
@<TRIPOS>BOND
     1    10    11    1
     2    11    12    1
     3    11     1    1
     4     1     2   ar
     5     2     3   ar
     6     3     4   ar
     7     4     5   ar
     8     5    13    1
     9    13    15    1
    10    15    16    1
    11    16    17   ar
    12    17    18   ar
    13    18    19   ar
    14    19    22    1
    15    22    23   ar
    16    23    24   ar
    17    24    25   ar
    18    25    26   ar
    19    26    27   ar
    20    19    20   ar
    21    20    21   ar
    22     5     6   ar
    23     6     7   ar
    24     7    28    1
    25    28    30    1
    26    30    31    1
    27    31    32    1
    28    31    34    1
    29    34    35    1
    30     7     8   ar
    31     8     9   ar
    32     9     1   ar
    33     9     4   ar
    34    21    16   ar
    35    27    22   ar
    36    13    14    1
    37    28    29    1
    38    32    33    1
    39    35    36    1
@<TRIPOS>MOLECULE
*****
 36 39 0 0 0
SMALL
GASTEIGER

@<TRIPOS>ATOM
      1 N          62.1284   87.1285   10.1276 N.ar    1  UNL1       -0.2962
      2 C          61.8541   88.6025   10.0817 C.ar    1  UNL1        0.1797
      3 N          62.2843   89.1951   11.3907 N.ar    1  UNL1       -0.2195
      4 C          62.8246   88.0874   12.2457 C.ar    1  UNL1        0.1484
      5 C          63.3919   88.0767   13.6343 C.ar    1  UNL1        0.1524
      6 N          63.8628   86.7888   14.2421 N.ar    1  UNL1       -0.1974
      7 C          63.7665   85.5117   13.4615 C.ar    1  UNL1        0.2195
      8 N          63.1992   85.5223   12.0729 N.ar    1  UNL1       -0.1947
      9 C          62.7283   86.8102   11.4650 C.ar    1  UNL1        0.1684
     10 C          62.9194   85.1859    8.5945 C.3     1  UNL1        0.0246
     11 C          61.8516   86.1455    9.0289 C.3     1  UNL1        0.0885
     12 C          60.5068   86.1221    8.3648 C.3     1  UNL1        0.0246
     13 N          63.4883   89.3539   14.4150 N.pl3   1  UNL1       -0.3131
     14 H          62.6792   89.7507   14.8115 H       1  UNL1        0.1485
     15 C          64.8173   90.0266   14.5915 C.3     1  UNL1        0.1154
     16 C          65.2454   91.1032   13.6387 C.ar    1  UNL1       -0.0026
     17 C          64.4089   91.4139   12.4331 C.ar    1  UNL1       -0.0026
     18 C          64.8370   92.4904   11.4804 C.ar    1  UNL1        0.0012
     19 C          66.1018   93.2563   11.7333 C.ar    1  UNL1        0.0176
     20 C          66.9383   92.9456   12.9389 C.ar    1  UNL1        0.0012
     21 C          66.5102   91.8690   13.8917 C.ar    1  UNL1       -0.0026
     22 C          66.5299   94.3328   10.7806 C.ar    1  UNL1        0.0813
     23 C          67.1354   93.9666    9.4579 C.ar    1  UNL1        0.0191
     24 C          67.5635   95.0432    8.5052 C.ar    1  UNL1        0.0031
     25 C          67.3862   96.4860    8.8751 C.ar    1  UNL1        0.0207
     26 C          66.7808   96.8522   10.1978 C.ar    1  UNL1        0.0988
     27 N          66.3527   95.7757   11.1505 N.ar    1  UNL1       -0.2438
     28 N          64.2374   84.2237   14.0694 N.pl3   1  UNL1       -0.3005
     29 H          65.1856   84.1100   14.3087 H       1  UNL1        0.1497
     30 C          63.2637   83.1090   14.3128 C.3     1  UNL1        0.1215
     31 C          63.3481   81.8492   13.5029 C.3     1  UNL1        0.1591
     32 O          63.0471   80.5256   14.1413 O.3     1  UNL1       -0.3802
     33 H          62.8169   80.6613   15.0737 H       1  UNL1        0.2105
     34 C          63.7335   81.9132   12.0546 C.3     1  UNL1        0.1680
     35 O          64.9367   82.7034   11.6330 O.3     1  UNL1       -0.3795
     36 H          64.7797   83.6458   11.8010 H       1  UNL1        0.2105
@<TRIPOS>BOND
     1    10    11    1
     2    11    12    1
     3    11     1    1
     4     1     2   ar
     5     2     3   ar
     6     3     4   ar
     7     4     5   ar
     8     5    13    1
     9    13    15    1
    10    15    16    1
    11    16    17   ar
    12    17    18   ar
    13    18    19   ar
    14    19    22    1
    15    22    23   ar
    16    23    24   ar
    17    24    25   ar
    18    25    26   ar
    19    26    27   ar
    20    19    20   ar
    21    20    21   ar
    22     5     6   ar
    23     6     7   ar
    24     7    28    1
    25    28    30    1
    26    30    31    1
    27    31    32    1
    28    31    34    1
    29    34    35    1
    30     7     8   ar
    31     8     9   ar
    32     9     1   ar
    33     9     4   ar
    34    21    16   ar
    35    27    22   ar
    36    13    14    1
    37    28    29    1
    38    32    33    1
    39    35    36    1
@<TRIPOS>MOLECULE
*****
 36 39 0 0 0
SMALL
GASTEIGER

@<TRIPOS>ATOM
      1 N          66.1693   92.0617   13.8251 N.ar    1  UNL1       -0.2962
      2 C          66.2072   92.4434   12.3750 C.ar    1  UNL1        0.1797
      3 N          64.9611   91.9191   11.7250 N.ar    1  UNL1       -0.2195
      4 C          64.1532   91.2134   12.7733 C.ar    1  UNL1        0.1484
      5 C          62.8340   90.5019   12.7138 C.ar    1  UNL1        0.1524
      6 N          62.2615   89.8785   13.9522 N.ar    1  UNL1       -0.1974
      7 C          63.0081   89.9667   15.2501 C.ar    1  UNL1        0.2195
      8 N          64.3274   90.6782   15.3097 N.ar    1  UNL1       -0.1947
      9 C          64.8998   91.3015   14.0713 C.ar    1  UNL1        0.1684
     10 C          66.8117   92.7700   16.2408 C.3     1  UNL1        0.0246
     11 C          67.2169   92.3837   14.8493 C.3     1  UNL1        0.0885
     12 C          68.6697   92.3193   14.4818 C.3     1  UNL1        0.0246
     13 N          62.0873   90.4137   11.4158 N.pl3   1  UNL1       -0.3131
     14 H          61.3704   91.0581   11.2156 H       1  UNL1        0.1485
     15 C          62.4329   89.3439   10.4229 C.3     1  UNL1        0.1154
     16 C          62.4906   87.9089   10.8562 C.ar    1  UNL1       -0.0026
     17 C          61.9071   86.8378    9.9833 C.ar    1  UNL1       -0.0026
     18 C          61.9648   85.4030   10.4165 C.ar    1  UNL1        0.0012
     19 C          62.6062   85.0392   11.7229 C.ar    1  UNL1        0.0176
     20 C          63.1898   86.1103   12.5958 C.ar    1  UNL1        0.0012
     21 C          63.1320   87.5452   12.1625 C.ar    1  UNL1       -0.0026
     22 C          62.6639   83.6044   12.1562 C.ar    1  UNL1        0.0813
     23 C          63.0045   82.5338   11.1621 C.ar    1  UNL1        0.0191
     24 C          63.0622   81.0989   11.5955 C.ar    1  UNL1        0.0031
     25 C          62.7794   80.7345   13.0228 C.ar    1  UNL1        0.0207
     26 C          62.4389   81.8051   14.0168 C.ar    1  UNL1        0.0988
     27 N          62.3811   83.2399   13.5835 N.ar    1  UNL1       -0.2438
     28 N          62.4356   89.3433   16.4886 N.pl3   1  UNL1       -0.3005
     29 H          61.5717   89.6557   16.8427 H       1  UNL1        0.1497
     30 C          63.1793   88.2440   17.1875 C.3     1  UNL1        0.1215
     31 C          62.9237   86.8128   16.8179 C.3     1  UNL1        0.1591
     32 O          61.6619   86.1365   17.2655 O.3     1  UNL1       -0.3802
     33 H          61.1256   86.7601   17.7796 H       1  UNL1        0.2105
     34 C          63.9301   86.0581   16.0008 C.3     1  UNL1        0.1680
     35 O          63.7778   84.5791   15.8026 O.3     1  UNL1       -0.3795
     36 H          63.8867   84.1260   16.6533 H       1  UNL1        0.2105
@<TRIPOS>BOND
     1    10    11    1
     2    11    12    1
     3    11     1    1
     4     1     2   ar
     5     2     3   ar
     6     3     4   ar
     7     4     5   ar
     8     5    13    1
     9    13    15    1
    10    15    16    1
    11    16    17   ar
    12    17    18   ar
    13    18    19   ar
    14    19    22    1
    15    22    23   ar
    16    23    24   ar
    17    24    25   ar
    18    25    26   ar
    19    26    27   ar
    20    19    20   ar
    21    20    21   ar
    22     5     6   ar
    23     6     7   ar
    24     7    28    1
    25    28    30    1
    26    30    31    1
    27    31    32    1
    28    31    34    1
    29    34    35    1
    30     7     8   ar
    31     8     9   ar
    32     9     1   ar
    33     9     4   ar
    34    21    16   ar
    35    27    22   ar
    36    13    14    1
    37    28    29    1
    38    32    33    1
    39    35    36    1
@<TRIPOS>MOLECULE
*****
 36 39 0 0 0
SMALL
GASTEIGER

@<TRIPOS>ATOM
      1 N          60.9306   87.4411    9.2991 N.ar    1  UNL1       -0.2962
      2 C          60.6147   88.8984    9.4618 C.ar    1  UNL1        0.1797
      3 N          61.2307   89.3656   10.7472 N.ar    1  UNL1       -0.2195
      4 C          61.9273   88.1970   11.3790 C.ar    1  UNL1        0.1484
      5 C          62.7066   88.0622   12.6535 C.ar    1  UNL1        0.1524
      6 N          63.3003   86.7381   13.0331 N.ar    1  UNL1       -0.1974
      7 C          63.1149   85.5488   12.1382 C.ar    1  UNL1        0.2195
      8 N          62.3356   85.6835   10.8635 N.ar    1  UNL1       -0.1947
      9 C          61.7418   87.0076   10.4840 C.ar    1  UNL1        0.1684
     10 C          61.4630   85.5592    7.5889 C.3     1  UNL1        0.0246
     11 C          60.5092   86.5702    8.1528 C.3     1  UNL1        0.0885
     12 C          59.1341   86.7104    7.5703 C.3     1  UNL1        0.0246
     13 N          62.8920   89.2516   13.5485 N.pl3   1  UNL1       -0.3131
     14 H          62.1101   89.6807   13.9654 H       1  UNL1        0.1485
     15 C          64.2688   89.7872   13.8084 C.3     1  UNL1        0.1154
     16 C          64.8018   90.9189   12.9807 C.ar    1  UNL1       -0.0026
     17 C          65.9721   91.7197   13.4697 C.ar    1  UNL1       -0.0026
     18 C          66.5051   92.8513   12.6420 C.ar    1  UNL1        0.0012
     19 C          65.8677   93.1823   11.3250 C.ar    1  UNL1        0.0176
     20 C          64.6974   92.3816   10.8360 C.ar    1  UNL1        0.0012
     21 C          64.1645   91.2499   11.6638 C.ar    1  UNL1       -0.0026
     22 C          66.4007   94.3139   10.4973 C.ar    1  UNL1        0.0813
     23 C          66.3132   95.7221   11.0069 C.ar    1  UNL1        0.0191
     24 C          66.8462   96.8537   10.1791 C.ar    1  UNL1        0.0031
     25 C          67.4666   96.5773    8.8417 C.ar    1  UNL1        0.0207
     26 C          67.5541   95.1693    8.3321 C.ar    1  UNL1        0.0988
     27 N          67.0212   94.0376    9.1598 N.ar    1  UNL1       -0.2438
     28 N          63.7087   84.2246   12.5178 N.pl3   1  UNL1       -0.3005
     29 H          64.6838   84.0937   12.4810 H       1  UNL1        0.1497
     30 C          62.8169   83.1000   12.9536 C.3     1  UNL1        0.1215
     31 C          62.6513   82.7966   14.4132 C.3     1  UNL1        0.1591
     32 O          62.1319   81.4578   14.8467 O.3     1  UNL1       -0.3802
     33 H          61.9538   80.9116   14.0652 H       1  UNL1        0.2105
     34 C          63.0050   83.8321   15.4393 C.3     1  UNL1        0.1680
     35 O          64.4060   84.3622   15.5175 O.3     1  UNL1       -0.3795
     36 H          65.0061   83.6509   15.7911 H       1  UNL1        0.2105
@<TRIPOS>BOND
     1    10    11    1
     2    11    12    1
     3    11     1    1
     4     1     2   ar
     5     2     3   ar
     6     3     4   ar
     7     4     5   ar
     8     5    13    1
     9    13    15    1
    10    15    16    1
    11    16    17   ar
    12    17    18   ar
    13    18    19   ar
    14    19    22    1
    15    22    23   ar
    16    23    24   ar
    17    24    25   ar
    18    25    26   ar
    19    26    27   ar
    20    19    20   ar
    21    20    21   ar
    22     5     6   ar
    23     6     7   ar
    24     7    28    1
    25    28    30    1
    26    30    31    1
    27    31    32    1
    28    31    34    1
    29    34    35    1
    30     7     8   ar
    31     8     9   ar
    32     9     1   ar
    33     9     4   ar
    34    21    16   ar
    35    27    22   ar
    36    13    14    1
    37    28    29    1
    38    32    33    1
    39    35    36    1
@<TRIPOS>MOLECULE
*****
 36 39 0 0 0
SMALL
GASTEIGER

@<TRIPOS>ATOM
      1 N          65.7241   92.5976   12.9802 N.ar    1  UNL1       -0.2962
      2 C          66.1369   92.7301   14.4161 C.ar    1  UNL1        0.1797
      3 N          65.2514   91.8401   15.2371 N.ar    1  UNL1       -0.2195
      4 C          64.2914   91.1575   14.3084 C.ar    1  UNL1        0.1484
      5 C          63.1889   90.1702   14.5527 C.ar    1  UNL1        0.1524
      6 N          62.3786   89.6510   13.4021 N.ar    1  UNL1       -0.1974
      7 C          62.6706   90.1191   12.0074 C.ar    1  UNL1        0.2195
      8 N          63.7732   91.1065   11.7631 N.ar    1  UNL1       -0.1947
      9 C          64.5835   91.6257   12.9136 C.ar    1  UNL1        0.1684
     10 C          67.0916   92.5362   10.7720 C.3     1  UNL1        0.0246
     11 C          66.3432   93.3116   11.8153 C.3     1  UNL1        0.0885
     12 C          66.2138   94.8010   11.6937 C.3     1  UNL1        0.0246
     13 N          62.8968   89.7020   15.9475 N.pl3   1  UNL1       -0.3131
     14 H          62.2194   90.1659   16.4907 H       1  UNL1        0.1485
     15 C          63.6368   88.5269   16.5146 C.3     1  UNL1        0.1154
     16 C          63.4785   87.1705   15.8941 C.ar    1  UNL1       -0.0026
     17 C          62.7028   86.1043   16.6094 C.ar    1  UNL1       -0.0026
     18 C          62.5446   84.7480   15.9889 C.ar    1  UNL1        0.0012
     19 C          63.1622   84.4576   14.6530 C.ar    1  UNL1        0.0176
     20 C          63.9379   85.5237   13.9378 C.ar    1  UNL1        0.0012
     21 C          64.0961   86.8802   14.5583 C.ar    1  UNL1       -0.0026
     22 C          63.0040   83.1012   14.0325 C.ar    1  UNL1        0.0813
     23 C          61.9286   82.1750   14.5182 C.ar    1  UNL1        0.0191
     24 C          61.7704   80.8186   13.8977 C.ar    1  UNL1        0.0031
     25 C          62.6876   80.3883   12.7915 C.ar    1  UNL1        0.0207
     26 C          63.7629   81.3145   12.3058 C.ar    1  UNL1        0.0988
     27 N          63.9211   82.6709   12.9262 N.ar    1  UNL1       -0.2438
     28 N          61.8602   89.5999   10.8568 N.pl3   1  UNL1       -0.3005
     29 H          61.9613   90.0004    9.9631 H       1  UNL1        0.1497
     30 C          60.8959   88.4705   11.0679 C.3     1  UNL1        0.1215
     31 C          60.9616   87.2546   10.1919 C.3     1  UNL1        0.1591
     32 O          60.5882   87.3535    8.7424 O.3     1  UNL1       -0.3802
     33 H          60.3301   88.2655    8.5365 H       1  UNL1        0.2105
     34 C          61.4007   85.9399   10.7654 C.3     1  UNL1        0.1680
     35 O          62.7000   85.3289   10.3313 O.3     1  UNL1       -0.3795
     36 H          62.6462   85.0871    9.3935 H       1  UNL1        0.2105
@<TRIPOS>BOND
     1    10    11    1
     2    11    12    1
     3    11     1    1
     4     1     2   ar
     5     2     3   ar
     6     3     4   ar
     7     4     5   ar
     8     5    13    1
     9    13    15    1
    10    15    16    1
    11    16    17   ar
    12    17    18   ar
    13    18    19   ar
    14    19    22    1
    15    22    23   ar
    16    23    24   ar
    17    24    25   ar
    18    25    26   ar
    19    26    27   ar
    20    19    20   ar
    21    20    21   ar
    22     5     6   ar
    23     6     7   ar
    24     7    28    1
    25    28    30    1
    26    30    31    1
    27    31    32    1
    28    31    34    1
    29    34    35    1
    30     7     8   ar
    31     8     9   ar
    32     9     1   ar
    33     9     4   ar
    34    21    16   ar
    35    27    22   ar
    36    13    14    1
    37    28    29    1
    38    32    33    1
    39    35    36    1
@<TRIPOS>MOLECULE
*****
 36 39 0 0 0
SMALL
GASTEIGER

@<TRIPOS>ATOM
      1 N          63.5988   90.8728   12.1731 N.ar    1  UNL1       -0.2962
      2 C          62.6119   89.7449   12.1122 C.ar    1  UNL1        0.1797
      3 N          62.3542   89.2781   13.5142 N.ar    1  UNL1       -0.2195
      4 C          63.1818   90.1176   14.4417 C.ar    1  UNL1        0.1484
      5 C          63.3344   90.1120   15.9339 C.ar    1  UNL1        0.1524
      6 N          64.2562   91.0919   16.5972 N.ar    1  UNL1       -0.1974
      7 C          65.0253   92.0774   15.7684 C.ar    1  UNL1        0.2195
      8 N          64.8728   92.0831   14.2762 N.ar    1  UNL1       -0.1947
      9 C          63.9510   91.1032   13.6128 C.ar    1  UNL1        0.1684
     10 C          63.3948   91.6350    9.6977 C.3     1  UNL1        0.0246
     11 C          64.1387   91.6363   11.0002 C.3     1  UNL1        0.0885
     12 C          65.4224   92.4012   11.1299 C.3     1  UNL1        0.0246
     13 N          62.5652   89.1265   16.7628 N.pl3   1  UNL1       -0.3131
     14 H          61.6291   89.3117   17.0052 H       1  UNL1        0.1485
     15 C          63.2221   87.8587   17.2223 C.3     1  UNL1        0.1154
     16 C          63.1596   86.6286   16.3661 C.ar    1  UNL1       -0.0026
     17 C          62.1902   85.5328   16.6970 C.ar    1  UNL1       -0.0026
     18 C          62.1278   84.3029   15.8408 C.ar    1  UNL1        0.0012
     19 C          63.0348   84.1686   14.6535 C.ar    1  UNL1        0.0176
     20 C          64.0042   85.2644   14.3226 C.ar    1  UNL1        0.0012
     21 C          64.0666   86.4944   15.1789 C.ar    1  UNL1       -0.0026
     22 C          62.9723   82.9387   13.7973 C.ar    1  UNL1        0.0813
     23 C          63.2745   83.0295   12.3308 C.ar    1  UNL1        0.0191
     24 C          63.2120   81.7995   11.4746 C.ar    1  UNL1        0.0031
     25 C          62.8474   80.4786   12.0848 C.ar    1  UNL1        0.0207
     26 C          62.5452   80.3878   13.5512 C.ar    1  UNL1        0.0988
     27 N          62.6077   81.6177   14.4075 N.ar    1  UNL1       -0.2438
     28 N          65.9472   93.0574   16.4318 N.pl3   1  UNL1       -0.3005
     29 H          65.5771   93.8090   16.9490 H       1  UNL1        0.1497
     30 C          67.4328   92.8923   16.3072 C.3     1  UNL1        0.1215
     31 C          68.0904   93.0090   14.9641 C.3     1  UNL1        0.1591
     32 O          67.3231   93.5597   13.7987 O.3     1  UNL1       -0.3802
     33 H          66.4248   93.7901   14.0829 H       1  UNL1        0.2105
     34 C          69.5152   92.5749   14.7864 C.3     1  UNL1        0.1680
     35 O          69.9681   92.0073   13.4739 O.3     1  UNL1       -0.3795
     36 H          69.5199   91.1618   13.3154 H       1  UNL1        0.2105
@<TRIPOS>BOND
     1    10    11    1
     2    11    12    1
     3    11     1    1
     4     1     2   ar
     5     2     3   ar
     6     3     4   ar
     7     4     5   ar
     8     5    13    1
     9    13    15    1
    10    15    16    1
    11    16    17   ar
    12    17    18   ar
    13    18    19   ar
    14    19    22    1
    15    22    23   ar
    16    23    24   ar
    17    24    25   ar
    18    25    26   ar
    19    26    27   ar
    20    19    20   ar
    21    20    21   ar
    22     5     6   ar
    23     6     7   ar
    24     7    28    1
    25    28    30    1
    26    30    31    1
    27    31    32    1
    28    31    34    1
    29    34    35    1
    30     7     8   ar
    31     8     9   ar
    32     9     1   ar
    33     9     4   ar
    34    21    16   ar
    35    27    22   ar
    36    13    14    1
    37    28    29    1
    38    32    33    1
    39    35    36    1
@<TRIPOS>MOLECULE
*****
 36 39 0 0 0
SMALL
GASTEIGER

@<TRIPOS>ATOM
      1 N          61.2647   85.8301    7.6677 N.ar    1  UNL1       -0.2962
      2 C          60.3979   87.0287    7.4190 C.ar    1  UNL1        0.1797
      3 N          60.2467   87.7684    8.7152 N.ar    1  UNL1       -0.2195
      4 C          61.0201   87.0270    9.7650 C.ar    1  UNL1        0.1484
      5 C          61.2328   87.2878   11.2267 C.ar    1  UNL1        0.1524
      6 N          62.0747   86.3508   12.0410 N.ar    1  UNL1       -0.1974
      7 C          62.7038   85.1529   11.3937 C.ar    1  UNL1        0.2195
      8 N          62.4911   84.8920    9.9319 N.ar    1  UNL1       -0.1947
      9 C          61.6493   85.8290    9.1176 C.ar    1  UNL1        0.1684
     10 C          63.1275   84.6048    6.3342 C.3     1  UNL1        0.0246
     11 C          61.6749   84.8114    6.6459 C.3     1  UNL1        0.0885
     12 C          60.6326   83.9994    5.9360 C.3     1  UNL1        0.0246
     13 N          60.6037   88.4858   11.8741 N.pl3   1  UNL1       -0.3131
     14 H          59.8492   88.3699   12.4958 H       1  UNL1        0.1485
     15 C          61.1240   89.8603   11.5742 C.3     1  UNL1        0.1154
     16 C          62.3839   90.3446   12.2287 C.ar    1  UNL1       -0.0026
     17 C          63.3474   91.1998   11.4604 C.ar    1  UNL1       -0.0026
     18 C          64.6071   91.6840   12.1150 C.ar    1  UNL1        0.0012
     19 C          64.9034   91.3130   13.5379 C.ar    1  UNL1        0.0176
     20 C          63.9399   90.4578   14.3062 C.ar    1  UNL1        0.0012
     21 C          62.6802   89.9736   13.6516 C.ar    1  UNL1       -0.0026
     22 C          66.1631   91.7972   14.1924 C.ar    1  UNL1        0.0813
     23 C          66.1229   92.3311   15.5937 C.ar    1  UNL1        0.0191
     24 C          67.3827   92.8154   16.2482 C.ar    1  UNL1        0.0031
     25 C          68.6827   92.7657   15.5016 C.ar    1  UNL1        0.0207
     26 C          68.7229   92.2319   14.1004 C.ar    1  UNL1        0.0988
     27 N          67.4632   91.7476   13.4458 N.ar    1  UNL1       -0.2438
     28 N          63.5457   84.2158   12.2081 N.pl3   1  UNL1       -0.3005
     29 H          64.4989   84.4127   12.3560 H       1  UNL1        0.1497
     30 C          62.9352   82.9787   12.7972 C.3     1  UNL1        0.1215
     31 C          62.8450   82.8229   14.2863 C.3     1  UNL1        0.1591
     32 O          62.2858   81.5622   14.8760 O.3     1  UNL1       -0.3802
     33 H          62.0319   80.9563   14.1623 H       1  UNL1        0.2105
     34 C          63.3141   83.9280   15.1857 C.3     1  UNL1        0.1680
     35 O          62.9371   85.3489   14.8873 O.3     1  UNL1       -0.3795
     36 H          63.3549   85.6267   14.0572 H       1  UNL1        0.2105
@<TRIPOS>BOND
     1    10    11    1
     2    11    12    1
     3    11     1    1
     4     1     2   ar
     5     2     3   ar
     6     3     4   ar
     7     4     5   ar
     8     5    13    1
     9    13    15    1
    10    15    16    1
    11    16    17   ar
    12    17    18   ar
    13    18    19   ar
    14    19    22    1
    15    22    23   ar
    16    23    24   ar
    17    24    25   ar
    18    25    26   ar
    19    26    27   ar
    20    19    20   ar
    21    20    21   ar
    22     5     6   ar
    23     6     7   ar
    24     7    28    1
    25    28    30    1
    26    30    31    1
    27    31    32    1
    28    31    34    1
    29    34    35    1
    30     7     8   ar
    31     8     9   ar
    32     9     1   ar
    33     9     4   ar
    34    21    16   ar
    35    27    22   ar
    36    13    14    1
    37    28    29    1
    38    32    33    1
    39    35    36    1
