@<TRIPOS>MOLECULE
*****
 25 27 0 0 0
SMALL
GASTEIGER

@<TRIPOS>ATOM
      1 C          64.2184   89.9823   15.1427 C.ar    1  UNL1       -0.0001
      2 C          63.4313   89.8696   16.4146 C.ar    1  UNL1       -0.0003
      3 C          63.0517   88.5186   16.9445 C.ar    1  UNL1       -0.0032
      4 C          63.4592   87.2803   16.2024 C.ar    1  UNL1       -0.0088
      5 C          64.2462   87.3931   14.9305 C.ar    1  UNL1       -0.0088
      6 C          64.6258   88.7441   14.4006 C.ar    1  UNL1       -0.0032
      7 C          64.5048   86.0062   14.4209 C.3     1  UNL1        0.0991
      8 N          63.8775   85.0363   15.3778 N.3     1  UNL1       -0.2652
      9 C          63.2313   85.8238   16.4789 C.3     1  UNL1        0.0991
     10 C          65.8716   91.5048   13.8394 C.2     1  UNL1        0.0598
     11 C          64.5979   91.3333   14.6129 C.2     1  UNL1        0.0047
     12 O          66.1876   94.0576   14.2049 O.2     1  UNL1       -0.2681
     13 C          66.2512   92.8558   13.3096 C.2     1  UNL1        0.2679
     14 N          66.6945   93.0050   11.8843 N.am    1  UNL1       -0.1934
     15 O          67.0741   94.3560   11.3544 O.3     1  UNL1       -0.2949
     16 H          66.7362   92.2162   11.2966 H       1  UNL1        0.1825
     17 H          66.9775   95.0177   12.0571 H       1  UNL1        0.2414
     18 C          63.8936   83.5413   15.2553 C.3     1  UNL1        0.0727
     19 C          63.0512   82.8650   14.2147 C.3     1  UNL1        0.0173
     20 C          63.2575   83.1791   12.7625 C.3     1  UNL1        0.0014
     21 C          64.1902   82.3413   11.9391 C.3     1  UNL1        0.0000
     22 C          64.3965   82.6555   10.4870 C.3     1  UNL1        0.0000
     23 C          63.6700   83.8074    9.8582 C.3     1  UNL1        0.0000
     24 C          62.7372   84.6452   10.6816 C.3     1  UNL1        0.0000
     25 C          62.5310   84.3310   12.1338 C.3     1  UNL1        0.0000
@<TRIPOS>BOND
     1    12    13    2
     2    13    10    1
     3    10    11    2
     4    11     1    1
     5     1     2   ar
     6     2     3   ar
     7     3     4   ar
     8     4     5   ar
     9     5     6   ar
    10     5     7    1
    11     7     8    1
    12     8    18    1
    13    18    19    1
    14    19    20    1
    15    20    21    1
    16    21    22    1
    17    22    23    1
    18    23    24    1
    19    24    25    1
    20     8     9    1
    21    13    14   am
    22    14    15    1
    23     6     1   ar
    24    25    20    1
    25     9     4    1
    26    14    16    1
    27    15    17    1
@<TRIPOS>MOLECULE
*****
 25 27 0 0 0
SMALL
GASTEIGER

@<TRIPOS>ATOM
      1 C          59.7588   87.8279    8.0208 C.ar    1  UNL1       -0.0001
      2 C          60.1911   86.5444    7.3762 C.ar    1  UNL1       -0.0003
      3 C          61.0704   85.5877    8.1255 C.ar    1  UNL1       -0.0032
      4 C          61.5175   85.9146    9.5195 C.ar    1  UNL1       -0.0088
      5 C          61.0852   87.1981   10.1642 C.ar    1  UNL1       -0.0088
      6 C          60.2059   88.1548    9.4148 C.ar    1  UNL1       -0.0032
      7 C          61.6800   87.2490   11.5403 C.3     1  UNL1        0.0991
      8 N          62.4799   85.9969   11.7461 N.3     1  UNL1       -0.2652
      9 C          62.3794   85.1722   10.4972 C.3     1  UNL1        0.0991
     10 C          59.4838   89.7572    6.3027 C.2     1  UNL1        0.0598
     11 C          58.8794   88.7846    7.2715 C.2     1  UNL1        0.0047
     12 O          59.2103   91.8788    4.8283 O.2     1  UNL1       -0.2681
     13 C          58.6044   90.7139    5.5534 C.2     1  UNL1        0.2679
     14 N          57.1191   90.5056    5.5292 N.am    1  UNL1       -0.1934
     15 O          56.2397   91.4622    4.7799 O.3     1  UNL1       -0.2949
     16 H          56.7214   89.7410    6.0051 H       1  UNL1        0.1825
     17 H          56.7863   92.1518    4.3716 H       1  UNL1        0.2414
     18 C          63.2457   85.6332   12.9836 C.3     1  UNL1        0.0727
     19 C          64.0401   84.3616   13.0275 C.3     1  UNL1        0.0173
     20 C          63.3371   83.0419   13.1458 C.3     1  UNL1        0.0014
     21 C          62.4017   82.7904   14.2911 C.3     1  UNL1        0.0000
     22 C          61.6987   81.4706   14.4094 C.3     1  UNL1        0.0000
     23 C          61.9310   80.4023   13.3824 C.3     1  UNL1        0.0000
     24 C          62.8664   80.6538   12.2370 C.3     1  UNL1        0.0000
     25 C          63.5694   81.9736   12.1187 C.3     1  UNL1        0.0000
@<TRIPOS>BOND
     1    12    13    2
     2    13    10    1
     3    10    11    2
     4    11     1    1
     5     1     2   ar
     6     2     3   ar
     7     3     4   ar
     8     4     5   ar
     9     5     6   ar
    10     5     7    1
    11     7     8    1
    12     8    18    1
    13    18    19    1
    14    19    20    1
    15    20    21    1
    16    21    22    1
    17    22    23    1
    18    23    24    1
    19    24    25    1
    20     8     9    1
    21    13    14   am
    22    14    15    1
    23     6     1   ar
    24    25    20    1
    25     9     4    1
    26    14    16    1
    27    15    17    1
@<TRIPOS>MOLECULE
*****
 25 27 0 0 0
SMALL
GASTEIGER

@<TRIPOS>ATOM
      1 C          59.8738   87.8322    8.2126 C.ar    1  UNL1       -0.0001
      2 C          59.8330   88.1398    9.6801 C.ar    1  UNL1       -0.0003
      3 C          60.6890   87.3603   10.6339 C.ar    1  UNL1       -0.0032
      4 C          61.5857   86.2732   10.1201 C.ar    1  UNL1       -0.0088
      5 C          61.6265   85.9656    8.6526 C.ar    1  UNL1       -0.0088
      6 C          60.7705   86.7451    7.6988 C.ar    1  UNL1       -0.0032
      7 C          62.6015   84.8455    8.4406 C.3     1  UNL1        0.0991
      8 N          63.1633   84.4609    9.7772 N.3     1  UNL1       -0.2652
      9 C          62.5355   85.3432   10.8152 C.3     1  UNL1        0.0991
     10 C          59.5553   89.8539    6.6122 C.2     1  UNL1        0.0598
     11 C          59.0178   88.6118    7.2589 C.2     1  UNL1        0.0047
     12 O          59.3324   91.5935    4.6954 O.2     1  UNL1       -0.2681
     13 C          58.6993   90.6334    5.6584 C.2     1  UNL1        0.2679
     14 N          57.2102   90.4529    5.6677 N.am    1  UNL1       -0.1934
     15 O          56.3543   91.2324    4.7139 O.3     1  UNL1       -0.2949
     16 H          56.7947   89.8227    6.2998 H       1  UNL1        0.1825
     17 H          56.9168   91.8019    4.1661 H       1  UNL1        0.2414
     18 C          64.1752   83.3831   10.0312 C.3     1  UNL1        0.0727
     19 C          64.6017   83.0706   11.4350 C.3     1  UNL1        0.0173
     20 C          63.6276   82.4552   12.3954 C.3     1  UNL1        0.0014
     21 C          63.0685   81.0899   12.1248 C.3     1  UNL1        0.0000
     22 C          62.0944   80.4745   13.0852 C.3     1  UNL1        0.0000
     23 C          61.6794   81.2245   14.3162 C.3     1  UNL1        0.0000
     24 C          62.2385   82.5898   14.5868 C.3     1  UNL1        0.0000
     25 C          63.2126   83.2052   13.6263 C.3     1  UNL1        0.0000
@<TRIPOS>BOND
     1    12    13    2
     2    13    10    1
     3    10    11    2
     4    11     1    1
     5     1     2   ar
     6     2     3   ar
     7     3     4   ar
     8     4     5   ar
     9     5     6   ar
    10     5     7    1
    11     7     8    1
    12     8    18    1
    13    18    19    1
    14    19    20    1
    15    20    21    1
    16    21    22    1
    17    22    23    1
    18    23    24    1
    19    24    25    1
    20     8     9    1
    21    13    14   am
    22    14    15    1
    23     6     1   ar
    24    25    20    1
    25     9     4    1
    26    14    16    1
    27    15    17    1
@<TRIPOS>MOLECULE
*****
 25 27 0 0 0
SMALL
GASTEIGER

@<TRIPOS>ATOM
      1 C          65.1074   92.1754   12.2851 C.ar    1  UNL1       -0.0001
      2 C          64.9597   92.5294   10.8350 C.ar    1  UNL1       -0.0003
      3 C          63.8984   91.8687   10.0060 C.ar    1  UNL1       -0.0032
      4 C          62.9848   90.8540   10.6272 C.ar    1  UNL1       -0.0088
      5 C          63.1326   90.5000   12.0772 C.ar    1  UNL1       -0.0088
      6 C          64.1939   91.1607   12.9062 C.ar    1  UNL1       -0.0032
      7 C          62.0939   89.4706   12.4113 C.3     1  UNL1        0.0991
      8 N          61.3042   89.1885   11.1676 N.3     1  UNL1       -0.2652
      9 C          61.8548   90.0435   10.0650 C.3     1  UNL1        0.0991
     10 C          67.3444   92.0411   13.5995 C.2     1  UNL1        0.0598
     11 C          66.1687   92.8360   13.1141 C.2     1  UNL1        0.0047
     12 O          69.8543   92.4541   14.1284 O.2     1  UNL1       -0.2681
     13 C          68.4057   92.7018   14.4284 C.2     1  UNL1        0.2679
     14 N          68.0183   93.6102   15.5575 N.am    1  UNL1       -0.1934
     15 O          69.0796   94.2709   16.3865 O.3     1  UNL1       -0.2949
     16 H          67.0675   93.7728   15.7545 H       1  UNL1        0.1825
     17 H          69.9546   94.0063   16.0621 H       1  UNL1        0.2414
     18 C          60.1640   88.2212   11.0476 C.3     1  UNL1        0.0727
     19 C          60.1681   87.1882    9.9600 C.3     1  UNL1        0.0173
     20 C          61.2995   86.2083    9.8606 C.3     1  UNL1        0.0014
     21 C          61.9760   85.9750    8.5423 C.3     1  UNL1        0.0000
     22 C          63.1073   84.9951    8.4429 C.3     1  UNL1        0.0000
     23 C          63.5621   84.2485    9.6619 C.3     1  UNL1        0.0000
     24 C          62.8856   84.4818   10.9801 C.3     1  UNL1        0.0000
     25 C          61.7542   85.4618   11.0795 C.3     1  UNL1        0.0000
@<TRIPOS>BOND
     1    12    13    2
     2    13    10    1
     3    10    11    2
     4    11     1    1
     5     1     2   ar
     6     2     3   ar
     7     3     4   ar
     8     4     5   ar
     9     5     6   ar
    10     5     7    1
    11     7     8    1
    12     8    18    1
    13    18    19    1
    14    19    20    1
    15    20    21    1
    16    21    22    1
    17    22    23    1
    18    23    24    1
    19    24    25    1
    20     8     9    1
    21    13    14   am
    22    14    15    1
    23     6     1   ar
    24    25    20    1
    25     9     4    1
    26    14    16    1
    27    15    17    1
@<TRIPOS>MOLECULE
*****
 25 27 0 0 0
SMALL
GASTEIGER

@<TRIPOS>ATOM
      1 C          64.6930   90.9154   14.6220 C.ar    1  UNL1       -0.0001
      2 C          63.9584   91.2066   15.8969 C.ar    1  UNL1       -0.0003
      3 C          63.3638   90.0831   16.6933 C.ar    1  UNL1       -0.0032
      4 C          63.5039   88.6684   16.2148 C.ar    1  UNL1       -0.0088
      5 C          64.2385   88.3772   14.9399 C.ar    1  UNL1       -0.0088
      6 C          64.8331   89.5007   14.1435 C.ar    1  UNL1       -0.0032
      7 C          64.2160   86.8935   14.7204 C.3     1  UNL1        0.0991
      8 N          63.4675   86.2677   15.8597 N.3     1  UNL1       -0.2652
      9 C          63.0274   87.3647   16.7833 C.3     1  UNL1        0.0991
     10 C          65.2408   92.0025   12.3268 C.2     1  UNL1        0.0598
     11 C          65.2875   92.0389   13.8256 C.2     1  UNL1        0.0047
     12 O          67.2938   93.4501   11.6637 O.2     1  UNL1       -0.2681
     13 C          65.8353   93.1260   11.5303 C.2     1  UNL1        0.2679
     14 N          64.9714   93.9254   10.6005 N.am    1  UNL1       -0.1934
     15 O          65.5659   95.0489    9.8041 O.3     1  UNL1       -0.2949
     16 H          64.0141   93.7127   10.5130 H       1  UNL1        0.1825
     17 H          66.5116   95.1238   10.0067 H       1  UNL1        0.2414
     18 C          63.2051   84.8023   16.0433 C.3     1  UNL1        0.0727
     19 C          62.0864   84.1411   15.2941 C.3     1  UNL1        0.0173
     20 C          62.3872   83.2792   14.1039 C.3     1  UNL1        0.0014
     21 C          62.7887   83.9098   12.8035 C.3     1  UNL1        0.0000
     22 C          63.0896   83.0479   11.6133 C.3     1  UNL1        0.0000
     23 C          62.9889   81.5553   11.7235 C.3     1  UNL1        0.0000
     24 C          62.5873   80.9246   13.0239 C.3     1  UNL1        0.0000
     25 C          62.2865   81.7866   14.2142 C.3     1  UNL1        0.0000
@<TRIPOS>BOND
     1    12    13    2
     2    13    10    1
     3    10    11    2
     4    11     1    1
     5     1     2   ar
     6     2     3   ar
     7     3     4   ar
     8     4     5   ar
     9     5     6   ar
    10     5     7    1
    11     7     8    1
    12     8    18    1
    13    18    19    1
    14    19    20    1
    15    20    21    1
    16    21    22    1
    17    22    23    1
    18    23    24    1
    19    24    25    1
    20     8     9    1
    21    13    14   am
    22    14    15    1
    23     6     1   ar
    24    25    20    1
    25     9     4    1
    26    14    16    1
    27    15    17    1
@<TRIPOS>MOLECULE
*****
 25 27 0 0 0
SMALL
GASTEIGER

@<TRIPOS>ATOM
      1 C          59.9984   88.5565    8.3591 C.ar    1  UNL1       -0.0001
      2 C          60.2708   87.0832    8.2867 C.ar    1  UNL1       -0.0003
      3 C          61.1651   86.4350    9.3016 C.ar    1  UNL1       -0.0032
      4 C          61.7871   87.2601   10.3889 C.ar    1  UNL1       -0.0088
      5 C          61.5147   88.7333   10.4614 C.ar    1  UNL1       -0.0088
      6 C          60.6204   89.3815    9.4464 C.ar    1  UNL1       -0.0032
      7 C          62.2632   89.2858   11.6381 C.3     1  UNL1        0.0991
      8 N          62.9981   88.1539   12.2929 N.3     1  UNL1       -0.2652
      9 C          62.7038   86.9019   11.5209 C.3     1  UNL1        0.0991
     10 C          59.6415   90.2834    6.4512 C.2     1  UNL1        0.0598
     11 C          59.1041   89.2047    7.3442 C.2     1  UNL1        0.0047
     12 O          59.3214   91.8851    4.4307 O.2     1  UNL1       -0.2681
     13 C          58.7472   90.9316    5.4363 C.2     1  UNL1        0.2679
     14 N          57.2786   90.6263    5.4269 N.am    1  UNL1       -0.1934
     15 O          56.3843   91.2745    4.4120 O.3     1  UNL1       -0.2949
     16 H          56.9017   90.0005    6.0869 H       1  UNL1        0.1825
     17 H          56.9106   91.8573    3.8426 H       1  UNL1        0.2414
     18 C          63.8735   88.2560   13.5067 C.3     1  UNL1        0.0727
     19 C          63.9057   89.5264   14.3035 C.3     1  UNL1        0.0173
     20 C          64.8279   90.6396   13.9034 C.3     1  UNL1        0.0014
     21 C          66.0871   90.8863   14.6804 C.3     1  UNL1        0.0000
     22 C          67.0093   91.9995   14.2802 C.3     1  UNL1        0.0000
     23 C          66.6725   92.8660   13.1030 C.3     1  UNL1        0.0000
     24 C          65.4134   92.6193   12.3260 C.3     1  UNL1        0.0000
     25 C          64.4911   91.5061   12.7262 C.3     1  UNL1        0.0000
@<TRIPOS>BOND
     1    12    13    2
     2    13    10    1
     3    10    11    2
     4    11     1    1
     5     1     2   ar
     6     2     3   ar
     7     3     4   ar
     8     4     5   ar
     9     5     6   ar
    10     5     7    1
    11     7     8    1
    12     8    18    1
    13    18    19    1
    14    19    20    1
    15    20    21    1
    16    21    22    1
    17    22    23    1
    18    23    24    1
    19    24    25    1
    20     8     9    1
    21    13    14   am
    22    14    15    1
    23     6     1   ar
    24    25    20    1
    25     9     4    1
    26    14    16    1
    27    15    17    1
@<TRIPOS>MOLECULE
*****
 25 27 0 0 0
SMALL
GASTEIGER

@<TRIPOS>ATOM
      1 C          63.4681   84.9954   13.4971 C.ar    1  UNL1       -0.0001
      2 C          64.1593   85.2074   14.8113 C.ar    1  UNL1       -0.0003
      3 C          64.5329   86.5931   15.2473 C.ar    1  UNL1       -0.0032
      4 C          64.2153   87.7669   14.3690 C.ar    1  UNL1       -0.0088
      5 C          63.5241   87.5549   13.0548 C.ar    1  UNL1       -0.0088
      6 C          63.1505   86.1691   12.6189 C.ar    1  UNL1       -0.0032
      7 C          63.3412   88.8948   12.4057 C.3     1  UNL1        0.0991
      8 N          63.9194   89.9349   13.3189 N.3     1  UNL1       -0.2652
      9 C          64.4596   89.2378   14.5322 C.3     1  UNL1        0.0991
     10 C          62.3460   82.7057   13.9953 C.2     1  UNL1        0.0598
     11 C          63.0944   83.6096   13.0612 C.2     1  UNL1        0.0047
     12 O          60.7304   80.6736   14.0976 O.2     1  UNL1       -0.2681
     13 C          61.9724   81.3199   13.5594 C.2     1  UNL1        0.2679
     14 N          62.8408   80.5805   12.5851 N.am    1  UNL1       -0.1934
     15 O          62.4672   79.1947   12.1492 O.3     1  UNL1       -0.2949
     16 H          63.6559   81.0047   12.2318 H       1  UNL1        0.1825
     17 H          61.6438   78.9288   12.5876 H       1  UNL1        0.2414
     18 C          63.9517   91.4127   13.0635 C.3     1  UNL1        0.0727
     19 C          65.2502   92.0892   12.7372 C.3     1  UNL1        0.0173
     20 C          66.3063   92.2342   13.7924 C.3     1  UNL1        0.0014
     21 C          67.7463   91.9904   13.4507 C.3     1  UNL1        0.0000
     22 C          68.8024   92.1354   14.5060 C.3     1  UNL1        0.0000
     23 C          68.4185   92.5243   15.9029 C.3     1  UNL1        0.0000
     24 C          66.9784   92.7681   16.2446 C.3     1  UNL1        0.0000
     25 C          65.9223   92.6230   15.1893 C.3     1  UNL1        0.0000
@<TRIPOS>BOND
     1    12    13    2
     2    13    10    1
     3    10    11    2
     4    11     1    1
     5     1     2   ar
     6     2     3   ar
     7     3     4   ar
     8     4     5   ar
     9     5     6   ar
    10     5     7    1
    11     7     8    1
    12     8    18    1
    13    18    19    1
    14    19    20    1
    15    20    21    1
    16    21    22    1
    17    22    23    1
    18    23    24    1
    19    24    25    1
    20     8     9    1
    21    13    14   am
    22    14    15    1
    23     6     1   ar
    24    25    20    1
    25     9     4    1
    26    14    16    1
    27    15    17    1
@<TRIPOS>MOLECULE
*****
 25 27 0 0 0
SMALL
GASTEIGER

@<TRIPOS>ATOM
      1 C          59.9327   87.8240    8.2619 C.ar    1  UNL1       -0.0001
      2 C          59.7962   88.0131    9.7436 C.ar    1  UNL1       -0.0003
      3 C          60.6246   87.1892   10.6843 C.ar    1  UNL1       -0.0032
      4 C          61.5895   86.1762   10.1433 C.ar    1  UNL1       -0.0088
      5 C          61.7260   85.9872    8.6615 C.ar    1  UNL1       -0.0088
      6 C          60.8976   86.8111    7.7208 C.ar    1  UNL1       -0.0032
      7 C          62.7530   84.9201    8.4230 C.3     1  UNL1        0.0991
      8 N          63.2511   84.4497    9.7574 N.3     1  UNL1       -0.2652
      9 C          62.5320   85.2260   10.8206 C.3     1  UNL1        0.0991
     10 C          59.7271   89.7941    6.5807 C.2     1  UNL1        0.0598
     11 C          59.1043   88.6479    7.3212 C.2     1  UNL1        0.0047
     12 O          57.4058   90.4727    5.6315 O.2     1  UNL1       -0.2681
     13 C          58.8986   90.6180    5.6400 C.2     1  UNL1        0.2679
     14 N          59.5632   91.5874    4.7079 N.am    1  UNL1       -0.1934
     15 O          58.7348   92.4113    3.7672 O.3     1  UNL1       -0.2949
     16 H          60.5431   91.6828    4.7135 H       1  UNL1        0.1825
     17 H          57.7968   92.1965    3.8895 H       1  UNL1        0.2414
     18 C          64.2865   83.3891    9.9882 C.3     1  UNL1        0.0727
     19 C          63.9805   82.2241   10.8821 C.3     1  UNL1        0.0173
     20 C          63.5638   82.4588   12.3038 C.3     1  UNL1        0.0014
     21 C          64.3724   83.3669   13.1822 C.3     1  UNL1        0.0000
     22 C          63.9557   83.6016   14.6039 C.3     1  UNL1        0.0000
     23 C          62.7303   82.9282   15.1472 C.3     1  UNL1        0.0000
     24 C          61.9217   82.0201   14.2688 C.3     1  UNL1        0.0000
     25 C          62.3385   81.7855   12.8471 C.3     1  UNL1        0.0000
@<TRIPOS>BOND
     1    12    13    2
     2    13    10    1
     3    10    11    2
     4    11     1    1
     5     1     2   ar
     6     2     3   ar
     7     3     4   ar
     8     4     5   ar
     9     5     6   ar
    10     5     7    1
    11     7     8    1
    12     8    18    1
    13    18    19    1
    14    19    20    1
    15    20    21    1
    16    21    22    1
    17    22    23    1
    18    23    24    1
    19    24    25    1
    20     8     9    1
    21    13    14   am
    22    14    15    1
    23     6     1   ar
    24    25    20    1
    25     9     4    1
    26    14    16    1
    27    15    17    1
@<TRIPOS>MOLECULE
*****
 25 27 0 0 0
SMALL
GASTEIGER

@<TRIPOS>ATOM
      1 C          62.4460   85.5155   11.4131 C.ar    1  UNL1       -0.0001
      2 C          61.7551   86.1653   10.2510 C.ar    1  UNL1       -0.0003
      3 C          61.7764   87.6580   10.1049 C.ar    1  UNL1       -0.0032
      4 C          62.4886   88.5009   11.1208 C.ar    1  UNL1       -0.0088
      5 C          63.1795   87.8512   12.2828 C.ar    1  UNL1       -0.0088
      6 C          63.1582   86.3585   12.4290 C.ar    1  UNL1       -0.0032
      7 C          63.7958   88.9329   13.1196 C.3     1  UNL1        0.0991
      8 N          63.4858   90.2512   12.4746 N.3     1  UNL1       -0.2652
      9 C          62.6779   89.9842   11.2393 C.3     1  UNL1        0.0991
     10 C          63.0140   83.3802   12.7798 C.2     1  UNL1        0.0598
     11 C          62.4247   84.0228   11.5592 C.2     1  UNL1        0.0047
     12 O          62.8280   81.0177   11.7151 O.2     1  UNL1       -0.2681
     13 C          62.9927   81.8875   12.9259 C.2     1  UNL1        0.2679
     14 N          63.1361   81.2647   14.2830 N.am    1  UNL1       -0.1934
     15 O          63.1148   79.7720   14.4291 O.3     1  UNL1       -0.2949
     16 H          63.2442   81.8356   15.0777 H       1  UNL1        0.1825
     17 H          63.0018   79.3633   13.5567 H       1  UNL1        0.2414
     18 C          63.9093   91.5998   12.9768 C.3     1  UNL1        0.0727
     19 C          65.2925   92.1055   12.6924 C.3     1  UNL1        0.0173
     20 C          66.2903   92.2271   13.8058 C.3     1  UNL1        0.0014
     21 C          67.7486   92.0056   13.5335 C.3     1  UNL1        0.0000
     22 C          68.7464   92.1273   14.6469 C.3     1  UNL1        0.0000
     23 C          68.2858   92.4704   16.0326 C.3     1  UNL1        0.0000
     24 C          66.8274   92.6920   16.3049 C.3     1  UNL1        0.0000
     25 C          65.8297   92.5703   15.1914 C.3     1  UNL1        0.0000
@<TRIPOS>BOND
     1    12    13    2
     2    13    10    1
     3    10    11    2
     4    11     1    1
     5     1     2   ar
     6     2     3   ar
     7     3     4   ar
     8     4     5   ar
     9     5     6   ar
    10     5     7    1
    11     7     8    1
    12     8    18    1
    13    18    19    1
    14    19    20    1
    15    20    21    1
    16    21    22    1
    17    22    23    1
    18    23    24    1
    19    24    25    1
    20     8     9    1
    21    13    14   am
    22    14    15    1
    23     6     1   ar
    24    25    20    1
    25     9     4    1
    26    14    16    1
    27    15    17    1
