@<TRIPOS>MOLECULE
*****
 42 42 0 0 0
SMALL
GASTEIGER

@<TRIPOS>ATOM
      1 C          63.8122   90.2099   13.3604 C.3     1  UNL1        0.1951
      2 C          62.6895   89.4517   12.7165 C.2     1  UNL1        0.2503
      3 O          61.2678   89.7702   13.0734 O.2     1  UNL1       -0.2725
      4 N          62.9884   88.3751   11.7157 N.am    1  UNL1       -0.2948
      5 H          63.9215   88.1661   11.4815 H       1  UNL1        0.1499
      6 C          61.8657   87.6169   11.0718 C.3     1  UNL1        0.1732
      7 C          60.9599   88.3049   10.0939 C.2     1  UNL1        0.3349
      8 O          61.2833   89.6904    9.6187 O.2     1  UNL1       -0.2483
      9 O          59.7307   87.6074    9.5913 O.3     1  UNL1       -0.4512
     10 C          59.5783   87.3181    8.1274 C.3     1  UNL1        0.1691
     11 C          59.9541   85.9706    7.5861 C.3     1  UNL1        0.0473
     12 C          59.0499   88.3762    7.2048 C.3     1  UNL1        0.0473
     13 C          61.6486   86.1708   11.4058 C.3     1  UNL1        0.0564
     14 C          62.7564   85.1799   11.2035 C.3     1  UNL1        0.1532
     15 S          63.0327   84.1400   12.2488 S.O2    1  UNL1       -0.0082
     16 C          63.3089   83.1002   13.2939 C.3     1  UNL1        0.1760
     17 O          62.1770   84.8929   13.2240 O.2     1  UNL1       -0.1729
     18 O          63.8883   83.3872   11.2736 O.2     1  UNL1       -0.1729
     19 C          64.7108   89.5251   14.3470 C.3     1  UNL1        0.0653
     20 C          64.1665   88.4433   15.2321 C.ar    1  UNL1       -0.0192
     21 C          63.3330   88.8003   16.4269 C.ar    1  UNL1       -0.0042
     22 C          62.7887   87.7184   17.3120 C.ar    1  UNL1       -0.0003
     23 C          63.0779   86.2796   17.0023 C.ar    1  UNL1       -0.0000
     24 C          63.9115   85.9226   15.8074 C.ar    1  UNL1       -0.0003
     25 C          64.4558   87.0044   14.9223 C.ar    1  UNL1       -0.0042
     26 O          64.0364   91.6529   13.0175 O.3     1  UNL1       -0.3453
     27 C          64.7878   92.0200   11.7723 C.3     1  UNL1        0.1583
     28 C          65.7598   93.1623   11.7921 C.3     1  UNL1        0.0840
     29 C          66.7260   93.3447   10.6593 C.3     1  UNL1        0.0169
     30 C          66.7614   94.6408    9.9051 C.3     1  UNL1        0.0015
     31 C          68.6521   92.4282    9.1760 C.3     1  UNL1        0.0000
     32 C          67.6567   92.2309   10.2807 C.3     1  UNL1        0.0014
     33 N          65.7656   94.1222   12.9447 N.3     1  UNL1       -0.2954
     34 H          64.8373   94.0829   13.3654 H       1  UNL1        0.1233
     35 C          66.7540   93.9493   14.0597 C.3     1  UNL1        0.0851
     36 C          66.5412   92.8818   15.0917 C.3     1  UNL1        0.0774
     37 N          65.2020   92.7315   15.7503 N.3     1  UNL1       -0.3204
     38 H          65.2367   91.9628   16.4198 H       1  UNL1        0.1189
     39 H          64.4950   92.5340   15.0421 H       1  UNL1        0.1189
     40 C          67.6677   91.9644   15.4651 C.3     1  UNL1        0.0703
     41 S          68.9422   92.5288   16.0194 S.3     1  UNL1       -0.1665
     42 H          69.5617   93.2728   15.0642 H       1  UNL1        0.1023
@<TRIPOS>BOND
     1    31    32    1
     2    32    29    1
     3    29    30    1
     4    29    28    1
     5    28    27    1
     6    27    26    1
     7    26     1    1
     8     1    19    1
     9    19    20    1
    10    20    21   ar
    11    21    22   ar
    12    22    23   ar
    13    23    24   ar
    14    24    25   ar
    15     1     2    1
    16     2     3    2
    17     2     4   am
    18     4     6    1
    19     6    13    1
    20    13    14    1
    21    14    15    1
    22    15    16    1
    23    15    17    2
    24    15    18    2
    25     6     7    1
    26     7     8    2
    27     7     9    1
    28     9    10    1
    29    10    11    1
    30    10    12    1
    31    28    33    1
    32    33    35    1
    33    35    36    1
    34    36    37    1
    35    36    40    1
    36    40    41    1
    37    25    20   ar
    38     4     5    1
    39    33    34    1
    40    37    38    1
    41    37    39    1
    42    41    42    1
@<TRIPOS>MOLECULE
*****
 42 42 0 0 0
SMALL
GASTEIGER

@<TRIPOS>ATOM
      1 C          62.3712   87.3576   11.6569 C.3     1  UNL1        0.1951
      2 C          62.8700   88.7551   11.8768 C.2     1  UNL1        0.2503
      3 O          62.5615   89.8279   10.8749 O.2     1  UNL1       -0.2725
      4 N          63.6775   89.0796   13.0986 N.am    1  UNL1       -0.2948
      5 H          63.8800   88.3755   13.7562 H       1  UNL1        0.1499
      6 C          64.1763   90.4771   13.3184 C.3     1  UNL1        0.1732
      7 C          64.6629   90.8951   14.6744 C.2     1  UNL1        0.3349
      8 O          63.7190   91.5442   15.6427 O.2     1  UNL1       -0.2483
      9 O          66.0934   90.6640   15.0620 O.3     1  UNL1       -0.4512
     10 C          67.0522   91.8163   15.1131 C.3     1  UNL1        0.1691
     11 C          66.8782   92.8916   16.1444 C.3     1  UNL1        0.0473
     12 C          68.1850   91.8935   14.1330 C.3     1  UNL1        0.0473
     13 C          64.1886   91.4565   12.1824 C.3     1  UNL1        0.0564
     14 C          65.0743   92.6655   12.2440 C.3     1  UNL1        0.1532
     15 S          65.8725   93.0726   11.0410 S.O2    1  UNL1       -0.0082
     16 C          66.6706   93.4797    9.8380 C.3     1  UNL1        0.1760
     17 O          66.7112   93.9706   11.9013 O.2     1  UNL1       -0.1729
     18 O          65.0338   92.1746   10.1807 O.2     1  UNL1       -0.1729
     19 C          61.1942   87.1139   10.7595 C.3     1  UNL1        0.0653
     20 C          61.3805   86.3933    9.4572 C.ar    1  UNL1       -0.0192
     21 C          62.7163   85.8064    9.1092 C.ar    1  UNL1       -0.0042
     22 C          62.9027   85.0858    7.8069 C.ar    1  UNL1       -0.0003
     23 C          61.7532   84.9520    6.8526 C.ar    1  UNL1       -0.0000
     24 C          60.4174   85.5389    7.2006 C.ar    1  UNL1       -0.0003
     25 C          60.2310   86.2595    8.5029 C.ar    1  UNL1       -0.0042
     26 O          63.0493   86.2039   12.3345 O.3     1  UNL1       -0.3453
     27 C          62.3602   84.8744   12.4207 C.3     1  UNL1        0.1583
     28 C          63.1154   83.6674   12.8932 C.3     1  UNL1        0.0840
     29 C          62.6989   82.2985   12.4430 C.3     1  UNL1        0.0169
     30 C          61.8446   81.4444   13.3321 C.3     1  UNL1        0.0015
     31 C          64.1753   82.5275   10.3176 C.3     1  UNL1        0.0000
     32 C          63.1368   81.7838   11.1039 C.3     1  UNL1        0.0014
     33 N          64.2870   83.8295   13.8157 N.3     1  UNL1       -0.2954
     34 H          64.8380   84.6096   13.4577 H       1  UNL1        0.1233
     35 C          64.0616   84.0923   15.2752 C.3     1  UNL1        0.0851
     36 C          63.6017   85.4452   15.7314 C.3     1  UNL1        0.0774
     37 N          64.1200   86.6805   15.0566 N.3     1  UNL1       -0.3204
     38 H          63.7051   87.5048   15.4911 H       1  UNL1        0.1189
     39 H          63.8726   86.6567   14.0673 H       1  UNL1        0.1189
     40 C          62.6234   85.5628   16.8623 C.3     1  UNL1        0.0703
     41 S          62.6568   86.7633   17.7611 S.3     1  UNL1       -0.1665
     42 H          63.8204   86.7702   18.4651 H       1  UNL1        0.1023
@<TRIPOS>BOND
     1    31    32    1
     2    32    29    1
     3    29    30    1
     4    29    28    1
     5    28    27    1
     6    27    26    1
     7    26     1    1
     8     1    19    1
     9    19    20    1
    10    20    21   ar
    11    21    22   ar
    12    22    23   ar
    13    23    24   ar
    14    24    25   ar
    15     1     2    1
    16     2     3    2
    17     2     4   am
    18     4     6    1
    19     6    13    1
    20    13    14    1
    21    14    15    1
    22    15    16    1
    23    15    17    2
    24    15    18    2
    25     6     7    1
    26     7     8    2
    27     7     9    1
    28     9    10    1
    29    10    11    1
    30    10    12    1
    31    28    33    1
    32    33    35    1
    33    35    36    1
    34    36    37    1
    35    36    40    1
    36    40    41    1
    37    25    20   ar
    38     4     5    1
    39    33    34    1
    40    37    38    1
    41    37    39    1
    42    41    42    1
@<TRIPOS>MOLECULE
*****
 42 42 0 0 0
SMALL
GASTEIGER

@<TRIPOS>ATOM
      1 C          62.2059   87.4211   11.4995 C.3     1  UNL1        0.1951
      2 C          62.7628   86.5669   12.5997 C.2     1  UNL1        0.2503
      3 O          63.7599   87.1401   13.5625 O.2     1  UNL1       -0.2725
      4 N          62.3224   85.1396   12.7370 N.am    1  UNL1       -0.2948
      5 H          61.6679   84.7634   12.1051 H       1  UNL1        0.1499
      6 C          62.8792   84.2855   13.8372 C.3     1  UNL1        0.1732
      7 C          64.2346   83.6601   13.6883 C.2     1  UNL1        0.3349
      8 O          65.4687   84.4809   13.9187 O.2     1  UNL1       -0.2483
      9 O          64.3557   82.2139   13.3090 O.3     1  UNL1       -0.4512
     10 C          63.3721   81.6039   12.3549 C.3     1  UNL1        0.1691
     11 C          62.4029   80.5662   12.8385 C.3     1  UNL1        0.0473
     12 C          63.3576   82.0316   10.9173 C.3     1  UNL1        0.0473
     13 C          62.0808   84.0567   15.0863 C.3     1  UNL1        0.0564
     14 C          62.6435   84.4527   16.4191 C.3     1  UNL1        0.1532
     15 S          62.7745   85.9036   16.7768 S.O2    1  UNL1       -0.0082
     16 C          62.9054   87.3544   17.1345 C.3     1  UNL1        0.1760
     17 O          64.2574   85.8217   16.5665 O.2     1  UNL1       -0.1729
     18 O          61.2916   85.9855   16.9872 O.2     1  UNL1       -0.1729
     19 C          61.0969   86.9005   10.6341 C.3     1  UNL1        0.0653
     20 C          61.4156   86.2071    9.3427 C.ar    1  UNL1       -0.0192
     21 C          62.7621   85.5776    9.1419 C.ar    1  UNL1       -0.0042
     22 C          63.0809   84.8842    7.8505 C.ar    1  UNL1       -0.0003
     23 C          62.0530   84.8204    6.7600 C.ar    1  UNL1       -0.0000
     24 C          60.7064   85.4499    6.9608 C.ar    1  UNL1       -0.0003
     25 C          60.3877   86.1433    8.2522 C.ar    1  UNL1       -0.0042
     26 O          62.7582   88.7958   11.2647 O.3     1  UNL1       -0.3453
     27 C          62.3700   89.9251   12.1723 C.3     1  UNL1        0.1583
     28 C          63.3515   91.0199   12.4695 C.3     1  UNL1        0.0840
     29 C          64.0916   91.6882   11.3490 C.3     1  UNL1        0.0169
     30 C          63.5608   91.6105    9.9482 C.3     1  UNL1        0.0015
     31 C          66.3891   92.5994   10.5483 C.3     1  UNL1        0.0000
     32 C          65.3623   92.4343   11.6293 C.3     1  UNL1        0.0014
     33 N          63.5929   91.4463   13.8872 N.3     1  UNL1       -0.2954
     34 H          62.7530   91.2064   14.4139 H       1  UNL1        0.1233
     35 C          64.7569   90.8875   14.6506 C.3     1  UNL1        0.0851
     36 C          65.7128   91.8126   15.3439 C.3     1  UNL1        0.0774
     37 N          65.2144   92.7487   16.4046 N.3     1  UNL1       -0.3204
     38 H          65.9936   93.2992   16.7656 H       1  UNL1        0.1189
     39 H          64.7974   92.2108   17.1643 H       1  UNL1        0.1189
     40 C          67.1670   91.8015   14.9764 C.3     1  UNL1        0.0703
     41 S          68.1774   92.4230   15.8944 S.3     1  UNL1       -0.1665
     42 H          67.9685   93.7655   15.9561 H       1  UNL1        0.1023
@<TRIPOS>BOND
     1    31    32    1
     2    32    29    1
     3    29    30    1
     4    29    28    1
     5    28    27    1
     6    27    26    1
     7    26     1    1
     8     1    19    1
     9    19    20    1
    10    20    21   ar
    11    21    22   ar
    12    22    23   ar
    13    23    24   ar
    14    24    25   ar
    15     1     2    1
    16     2     3    2
    17     2     4   am
    18     4     6    1
    19     6    13    1
    20    13    14    1
    21    14    15    1
    22    15    16    1
    23    15    17    2
    24    15    18    2
    25     6     7    1
    26     7     8    2
    27     7     9    1
    28     9    10    1
    29    10    11    1
    30    10    12    1
    31    28    33    1
    32    33    35    1
    33    35    36    1
    34    36    37    1
    35    36    40    1
    36    40    41    1
    37    25    20   ar
    38     4     5    1
    39    33    34    1
    40    37    38    1
    41    37    39    1
    42    41    42    1
@<TRIPOS>MOLECULE
*****
 42 42 0 0 0
SMALL
GASTEIGER

@<TRIPOS>ATOM
      1 C          63.4219   90.1922   13.5002 C.3     1  UNL1        0.1951
      2 C          64.4281   91.1008   12.8582 C.2     1  UNL1        0.2503
      3 O          64.3379   91.4026   11.3917 O.2     1  UNL1       -0.2725
      4 N          65.5244   91.7076   13.6828 N.am    1  UNL1       -0.2948
      5 H          65.5836   91.5096   14.6453 H       1  UNL1        0.1499
      6 C          66.5305   92.6163   13.0408 C.3     1  UNL1        0.1732
      7 C          67.9816   92.2364   13.0249 C.2     1  UNL1        0.3349
      8 O          68.6649   91.9394   11.7231 O.2     1  UNL1       -0.2483
      9 O          68.7492   92.1536   14.3109 O.3     1  UNL1       -0.4512
     10 C          68.3445   92.9993   15.4818 C.3     1  UNL1        0.1691
     11 C          67.1835   92.5884   16.3381 C.3     1  UNL1        0.0473
     12 C          69.1007   94.2559   15.7963 C.3     1  UNL1        0.0473
     13 C          66.0856   93.9047   12.4147 C.3     1  UNL1        0.0564
     14 C          66.1561   94.0790   10.9265 C.3     1  UNL1        0.1532
     15 S          66.7014   95.3497   10.3452 S.O2    1  UNL1       -0.0082
     16 C          67.2468   96.6204    9.7640 C.3     1  UNL1        0.1760
     17 O          65.5053   96.0969   10.8562 O.2     1  UNL1       -0.1729
     18 O          67.8975   94.6026    9.8343 O.2     1  UNL1       -0.1729
     19 C          63.4768   89.9369   14.9772 C.3     1  UNL1        0.0653
     20 C          63.5767   88.5317   15.4923 C.ar    1  UNL1       -0.0192
     21 C          64.3378   87.4999   14.7139 C.ar    1  UNL1       -0.0042
     22 C          64.4376   86.0946   15.2290 C.ar    1  UNL1       -0.0003
     23 C          63.7764   85.7212   16.5225 C.ar    1  UNL1       -0.0000
     24 C          63.0153   86.7530   17.3009 C.ar    1  UNL1       -0.0003
     25 C          62.9154   88.1582   16.7858 C.ar    1  UNL1       -0.0042
     26 O          62.3609   89.5388   12.6650 O.3     1  UNL1       -0.3453
     27 C          62.7142   88.3896   11.7681 C.3     1  UNL1        0.1583
     28 C          61.6686   87.3814   11.3937 C.3     1  UNL1        0.0840
     29 C          62.0768   86.0409   10.8585 C.3     1  UNL1        0.0169
     30 C          62.7007   85.0273   11.7712 C.3     1  UNL1        0.0015
     31 C          63.0386   85.5230    8.5012 C.3     1  UNL1        0.0000
     32 C          61.8611   85.7142    9.4105 C.3     1  UNL1        0.0014
     33 N          60.2147   87.7136   11.5547 N.3     1  UNL1       -0.2954
     34 H          60.0833   87.9979   12.5254 H       1  UNL1        0.1233
     35 C          59.5901   88.7789   10.7032 C.3     1  UNL1        0.0851
     36 C          60.3271   89.3147    9.5117 C.3     1  UNL1        0.0774
     37 N          61.3205   90.4257    9.6815 N.3     1  UNL1       -0.3204
     38 H          61.7235   90.6629    8.7751 H       1  UNL1        0.1189
     39 H          62.0614   90.1254   10.3150 H       1  UNL1        0.1189
     40 C          60.0707   88.7395    8.1503 C.3     1  UNL1        0.0703
     41 S          59.1216   87.5893    7.9886 S.3     1  UNL1       -0.1665
     42 H          59.6312   86.4907    8.6075 H       1  UNL1        0.1023
@<TRIPOS>BOND
     1    31    32    1
     2    32    29    1
     3    29    30    1
     4    29    28    1
     5    28    27    1
     6    27    26    1
     7    26     1    1
     8     1    19    1
     9    19    20    1
    10    20    21   ar
    11    21    22   ar
    12    22    23   ar
    13    23    24   ar
    14    24    25   ar
    15     1     2    1
    16     2     3    2
    17     2     4   am
    18     4     6    1
    19     6    13    1
    20    13    14    1
    21    14    15    1
    22    15    16    1
    23    15    17    2
    24    15    18    2
    25     6     7    1
    26     7     8    2
    27     7     9    1
    28     9    10    1
    29    10    11    1
    30    10    12    1
    31    28    33    1
    32    33    35    1
    33    35    36    1
    34    36    37    1
    35    36    40    1
    36    40    41    1
    37    25    20   ar
    38     4     5    1
    39    33    34    1
    40    37    38    1
    41    37    39    1
    42    41    42    1
@<TRIPOS>MOLECULE
*****
 42 42 0 0 0
SMALL
GASTEIGER

@<TRIPOS>ATOM
      1 C          62.4103   87.8056   11.5540 C.3     1  UNL1        0.1951
      2 C          62.9145   86.8625   12.6059 C.2     1  UNL1        0.2503
      3 O          63.8749   87.3483   13.6506 O.2     1  UNL1       -0.2725
      4 N          62.4582   85.4335   12.6130 N.am    1  UNL1       -0.2948
      5 H          61.8278   85.1147   11.9273 H       1  UNL1        0.1499
      6 C          62.9624   84.4905   13.6648 C.3     1  UNL1        0.1732
      7 C          64.3271   83.8817   13.5344 C.2     1  UNL1        0.3349
      8 O          65.5311   84.6265   14.0302 O.2     1  UNL1       -0.2483
      9 O          64.4879   82.5282   12.9082 O.3     1  UNL1       -0.4512
     10 C          63.8373   82.2297   11.5900 C.3     1  UNL1        0.1691
     11 C          62.7161   81.2360   11.5150 C.3     1  UNL1        0.0473
     12 C          64.3079   82.9247   10.3469 C.3     1  UNL1        0.0473
     13 C          62.1019   84.1562   14.8471 C.3     1  UNL1        0.0564
     14 C          62.6037   84.4143   16.2369 C.3     1  UNL1        0.1532
     15 S          62.7084   85.8210   16.7473 S.O2    1  UNL1       -0.0082
     16 C          62.8131   87.2276   17.2576 C.3     1  UNL1        0.1760
     17 O          61.2164   85.8803   16.8901 O.2     1  UNL1       -0.1729
     18 O          64.2004   85.7617   16.6045 O.2     1  UNL1       -0.1729
     19 C          61.2117   87.4388   10.7302 C.3     1  UNL1        0.0653
     20 C          61.3811   86.6301    9.4782 C.ar    1  UNL1       -0.0192
     21 C          62.7207   86.0479    9.1369 C.ar    1  UNL1       -0.0042
     22 C          62.8901   85.2392    7.8850 C.ar    1  UNL1       -0.0003
     23 C          61.7199   85.0127    6.9744 C.ar    1  UNL1       -0.0000
     24 C          60.3803   85.5949    7.3157 C.ar    1  UNL1       -0.0003
     25 C          60.2109   86.4035    8.5676 C.ar    1  UNL1       -0.0042
     26 O          63.1047   89.1155   11.3260 O.3     1  UNL1       -0.3453
     27 C          62.7217   90.3184   12.1361 C.3     1  UNL1        0.1583
     28 C          63.7860   91.1828   12.7446 C.3     1  UNL1        0.0840
     29 C          64.3739   90.8228   14.0768 C.3     1  UNL1        0.0169
     30 C          63.5043   90.2269   15.1438 C.3     1  UNL1        0.0015
     31 C          66.2668   92.2675   15.1157 C.3     1  UNL1        0.0000
     32 C          65.8313   91.0586   14.3419 C.3     1  UNL1        0.0014
     33 N          64.2624   92.4072   12.0208 N.3     1  UNL1       -0.2954
     34 H          64.5632   93.0721   12.7334 H       1  UNL1        0.1233
     35 C          65.3804   92.3031   11.0262 C.3     1  UNL1        0.0851
     36 C          66.3561   93.4322   10.8737 C.3     1  UNL1        0.0774
     37 N          66.6554   94.3274   12.0395 N.3     1  UNL1       -0.3204
     38 H          67.3348   95.0347   11.7593 H       1  UNL1        0.1189
     39 H          67.0384   93.7724   12.8048 H       1  UNL1        0.1189
     40 C          67.0325   93.6660    9.5555 C.3     1  UNL1        0.0703
     41 S          67.4620   95.0499    9.1679 S.3     1  UNL1       -0.1665
     42 H          66.3643   95.8357    9.0030 H       1  UNL1        0.1023
@<TRIPOS>BOND
     1    31    32    1
     2    32    29    1
     3    29    30    1
     4    29    28    1
     5    28    27    1
     6    27    26    1
     7    26     1    1
     8     1    19    1
     9    19    20    1
    10    20    21   ar
    11    21    22   ar
    12    22    23   ar
    13    23    24   ar
    14    24    25   ar
    15     1     2    1
    16     2     3    2
    17     2     4   am
    18     4     6    1
    19     6    13    1
    20    13    14    1
    21    14    15    1
    22    15    16    1
    23    15    17    2
    24    15    18    2
    25     6     7    1
    26     7     8    2
    27     7     9    1
    28     9    10    1
    29    10    11    1
    30    10    12    1
    31    28    33    1
    32    33    35    1
    33    35    36    1
    34    36    37    1
    35    36    40    1
    36    40    41    1
    37    25    20   ar
    38     4     5    1
    39    33    34    1
    40    37    38    1
    41    37    39    1
    42    41    42    1
@<TRIPOS>MOLECULE
*****
 42 42 0 0 0
SMALL
GASTEIGER

@<TRIPOS>ATOM
      1 C          63.7990   89.4023   13.3469 C.3     1  UNL1        0.1951
      2 C          64.1827   90.7353   12.7759 C.2     1  UNL1        0.2503
      3 O          63.1725   91.5460   12.0195 O.2     1  UNL1       -0.2725
      4 N          65.5766   91.2575   12.9613 N.am    1  UNL1       -0.2948
      5 H          66.2397   90.7253   13.4578 H       1  UNL1        0.1499
      6 C          65.9603   92.5904   12.3903 C.3     1  UNL1        0.1732
      7 C          66.6302   93.6137   13.2589 C.2     1  UNL1        0.3349
      8 O          66.1018   95.0166   13.3090 O.2     1  UNL1       -0.2483
      9 O          67.8286   93.2339   14.0773 O.3     1  UNL1       -0.4512
     10 C          67.6529   92.7624   15.4903 C.3     1  UNL1        0.1691
     11 C          68.8446   92.3221   16.2878 C.3     1  UNL1        0.0473
     12 C          66.2854   92.7311   16.1060 C.3     1  UNL1        0.0473
     13 C          65.6741   92.9002   10.9509 C.3     1  UNL1        0.0564
     14 C          66.8001   93.2308   10.0166 C.3     1  UNL1        0.1532
     15 S          67.1077   94.6621    9.6897 S.O2    1  UNL1       -0.0082
     16 C          67.4153   96.0933    9.3627 C.3     1  UNL1        0.1760
     17 O          65.6890   95.0378    9.9996 O.2     1  UNL1       -0.1729
     18 O          68.5263   94.2864    9.3797 O.2     1  UNL1       -0.1729
     19 C          64.5950   88.8114   14.4725 C.3     1  UNL1        0.0653
     20 C          63.9597   87.8182   15.3998 C.ar    1  UNL1       -0.0192
     21 C          64.0679   86.3497   15.1142 C.ar    1  UNL1       -0.0042
     22 C          63.4325   85.3564   16.0415 C.ar    1  UNL1       -0.0003
     23 C          62.6890   85.8318   17.2544 C.ar    1  UNL1       -0.0000
     24 C          62.5808   87.3003   17.5400 C.ar    1  UNL1       -0.0003
     25 C          63.2161   88.2935   16.6127 C.ar    1  UNL1       -0.0042
     26 O          62.6193   88.6602   12.7921 O.3     1  UNL1       -0.3453
     27 C          62.6336   88.1849   11.3695 C.3     1  UNL1        0.1583
     28 C          62.2369   86.7750   11.0458 C.3     1  UNL1        0.0840
     29 C          61.8359   86.4111    9.6470 C.3     1  UNL1        0.0169
     30 C          62.8578   85.8734    8.6896 C.3     1  UNL1        0.0015
     31 C          59.9982   86.1622    7.8273 C.3     1  UNL1        0.0000
     32 C          60.4129   86.5849    9.2055 C.3     1  UNL1        0.0014
     33 N          62.2413   85.7290   12.1209 N.3     1  UNL1       -0.2954
     34 H          61.3134   85.7382   12.5444 H       1  UNL1        0.1233
     35 C          62.5462   84.3012   11.7769 C.3     1  UNL1        0.0851
     36 C          63.3087   83.4434   12.7428 C.3     1  UNL1        0.0774
     37 N          64.7873   83.6332   12.9089 N.3     1  UNL1       -0.3204
     38 H          65.1396   82.9710   13.6000 H       1  UNL1        0.1189
     39 H          64.9747   84.5852   13.2237 H       1  UNL1        0.1189
     40 C          62.5926   82.3958   13.5425 C.3     1  UNL1        0.0703
     41 S          62.6905   80.9524   13.1462 S.3     1  UNL1       -0.1665
     42 H          62.0865   80.7712   11.9412 H       1  UNL1        0.1023
@<TRIPOS>BOND
     1    31    32    1
     2    32    29    1
     3    29    30    1
     4    29    28    1
     5    28    27    1
     6    27    26    1
     7    26     1    1
     8     1    19    1
     9    19    20    1
    10    20    21   ar
    11    21    22   ar
    12    22    23   ar
    13    23    24   ar
    14    24    25   ar
    15     1     2    1
    16     2     3    2
    17     2     4   am
    18     4     6    1
    19     6    13    1
    20    13    14    1
    21    14    15    1
    22    15    16    1
    23    15    17    2
    24    15    18    2
    25     6     7    1
    26     7     8    2
    27     7     9    1
    28     9    10    1
    29    10    11    1
    30    10    12    1
    31    28    33    1
    32    33    35    1
    33    35    36    1
    34    36    37    1
    35    36    40    1
    36    40    41    1
    37    25    20   ar
    38     4     5    1
    39    33    34    1
    40    37    38    1
    41    37    39    1
    42    41    42    1
@<TRIPOS>MOLECULE
*****
 42 42 0 0 0
SMALL
GASTEIGER

@<TRIPOS>ATOM
      1 C          63.9193   89.9846   13.4395 C.3     1  UNL1        0.1951
      2 C          62.7892   89.2810   12.7482 C.2     1  UNL1        0.2503
      3 O          61.3720   89.6883   13.0230 O.2     1  UNL1       -0.2725
      4 N          63.0764   88.1699   11.7822 N.am    1  UNL1       -0.2948
      5 H          64.0065   87.9026   11.6018 H       1  UNL1        0.1499
      6 C          61.9463   87.4663   11.0910 C.3     1  UNL1        0.1732
      7 C          61.0761   88.2142   10.1247 C.2     1  UNL1        0.3349
      8 O          61.4769   89.5824    9.6584 O.2     1  UNL1       -0.2483
      9 O          59.8052   87.5938    9.6247 O.3     1  UNL1       -0.4512
     10 C          59.6147   87.3541    8.1563 C.3     1  UNL1        0.1691
     11 C          59.9060   86.0033    7.5729 C.3     1  UNL1        0.0473
     12 C          59.1328   88.4653    7.2714 C.3     1  UNL1        0.0473
     13 C          61.6863   86.0148   11.3660 C.3     1  UNL1        0.0564
     14 C          62.6680   85.2165   12.1715 C.3     1  UNL1        0.1532
     15 S          62.9340   83.7821   11.8224 S.O2    1  UNL1       -0.0082
     16 C          63.2000   82.3478   11.4732 C.3     1  UNL1        0.1760
     17 O          62.5857   83.3764   13.2238 O.2     1  UNL1       -0.1729
     18 O          63.2823   84.1879   10.4210 O.2     1  UNL1       -0.1729
     19 C          64.1347   89.7916   14.9113 C.3     1  UNL1        0.0653
     20 C          63.8570   88.4591   15.5416 C.ar    1  UNL1       -0.0192
     21 C          63.0348   88.3783   16.7935 C.ar    1  UNL1       -0.0042
     22 C          62.7571   87.0458   17.4238 C.ar    1  UNL1       -0.0003
     23 C          63.3017   85.7940   16.8021 C.ar    1  UNL1       -0.0000
     24 C          64.1239   85.8748   15.5502 C.ar    1  UNL1       -0.0003
     25 C          64.4015   87.2073   14.9199 C.ar    1  UNL1       -0.0042
     26 O          64.8340   90.8812   12.6588 O.3     1  UNL1       -0.3453
     27 C          64.8857   92.3489   12.9639 C.3     1  UNL1        0.1583
     28 C          66.1917   92.9955   13.3196 C.3     1  UNL1        0.0840
     29 C          66.8052   92.7552   14.6671 C.3     1  UNL1        0.0169
     30 C          65.9306   92.6474   15.8809 C.3     1  UNL1        0.0015
     31 C          69.0146   93.3426   15.9012 C.3     1  UNL1        0.0000
     32 C          68.2933   92.6225   14.8007 C.3     1  UNL1        0.0014
     33 N          66.8840   93.8825   12.3276 N.3     1  UNL1       -0.2954
     34 H          67.8340   93.5253   12.2261 H       1  UNL1        0.1233
     35 C          66.3287   94.0356   10.9427 C.3     1  UNL1        0.0851
     36 C          67.1675   94.6508    9.8620 C.3     1  UNL1        0.0774
     37 N          67.1311   96.1333    9.6367 N.3     1  UNL1       -0.3204
     38 H          67.7573   96.3760    8.8690 H       1  UNL1        0.1189
     39 H          67.4312   96.6136   10.4851 H       1  UNL1        0.1189
     40 C          68.0427   93.7835    9.0066 C.3     1  UNL1        0.0703
     41 S          68.3626   92.3832    9.4387 S.3     1  UNL1       -0.1665
     42 H          69.1148   92.4188   10.5711 H       1  UNL1        0.1023
@<TRIPOS>BOND
     1    31    32    1
     2    32    29    1
     3    29    30    1
     4    29    28    1
     5    28    27    1
     6    27    26    1
     7    26     1    1
     8     1    19    1
     9    19    20    1
    10    20    21   ar
    11    21    22   ar
    12    22    23   ar
    13    23    24   ar
    14    24    25   ar
    15     1     2    1
    16     2     3    2
    17     2     4   am
    18     4     6    1
    19     6    13    1
    20    13    14    1
    21    14    15    1
    22    15    16    1
    23    15    17    2
    24    15    18    2
    25     6     7    1
    26     7     8    2
    27     7     9    1
    28     9    10    1
    29    10    11    1
    30    10    12    1
    31    28    33    1
    32    33    35    1
    33    35    36    1
    34    36    37    1
    35    36    40    1
    36    40    41    1
    37    25    20   ar
    38     4     5    1
    39    33    34    1
    40    37    38    1
    41    37    39    1
    42    41    42    1
@<TRIPOS>MOLECULE
*****
 42 42 0 0 0
SMALL
GASTEIGER

@<TRIPOS>ATOM
      1 C          62.2268   87.7222   11.4083 C.3     1  UNL1        0.1951
      2 C          62.9772   87.0093   12.4940 C.2     1  UNL1        0.2503
      3 O          63.9587   87.7597   13.3446 O.2     1  UNL1       -0.2725
      4 N          62.7460   85.5460   12.7291 N.am    1  UNL1       -0.2948
      5 H          62.1018   85.0535   12.1708 H       1  UNL1        0.1499
      6 C          63.4963   84.8330   13.8148 C.3     1  UNL1        0.1732
      7 C          63.1481   85.0789   15.2530 C.2     1  UNL1        0.3349
      8 O          62.0237   84.3197   15.8928 O.2     1  UNL1       -0.2483
      9 O          63.9244   86.0839   16.0514 O.3     1  UNL1       -0.4512
     10 C          63.2047   87.0452   16.9502 C.3     1  UNL1        0.1691
     11 C          62.5908   86.5594   18.2297 C.3     1  UNL1        0.0473
     12 C          63.0989   88.4921   16.5695 C.3     1  UNL1        0.0473
     13 C          64.5947   83.8744   13.4623 C.3     1  UNL1        0.0564
     14 C          64.2766   82.6074   12.7251 C.3     1  UNL1        0.1532
     15 S          63.1144   81.7616   13.1542 S.O2    1  UNL1       -0.0082
     16 C          61.9523   80.9158   13.5833 C.3     1  UNL1        0.1760
     17 O          62.4546   81.9951   11.8275 O.2     1  UNL1       -0.1729
     18 O          63.7742   81.5281   14.4808 O.2     1  UNL1       -0.1729
     19 C          61.0897   87.0384   10.7089 C.3     1  UNL1        0.0653
     20 C          61.3275   86.3249    9.4111 C.ar    1  UNL1       -0.0192
     21 C          60.2278   86.2287    8.3956 C.ar    1  UNL1       -0.0042
     22 C          60.4657   85.5153    7.0977 C.ar    1  UNL1       -0.0003
     23 C          61.8033   84.8981    6.8154 C.ar    1  UNL1       -0.0000
     24 C          62.9031   84.9943    7.8309 C.ar    1  UNL1       -0.0003
     25 C          62.6652   85.7077    9.1287 C.ar    1  UNL1       -0.0042
     26 O          62.6137   89.1191   11.0219 O.3     1  UNL1       -0.3453
     27 C          62.3046   90.2641   11.9402 C.3     1  UNL1        0.1583
     28 C          63.4134   91.1337   12.4544 C.3     1  UNL1        0.0840
     29 C          64.3425   91.8119   11.4917 C.3     1  UNL1        0.0169
     30 C          63.9849   91.8963   10.0375 C.3     1  UNL1        0.0015
     31 C          66.2253   93.5898   11.2816 C.3     1  UNL1        0.0000
     32 C          65.6293   92.4057   11.9833 C.3     1  UNL1        0.0014
     33 N          63.5931   91.3250   13.9312 N.3     1  UNL1       -0.2954
     34 H          62.9130   90.7199   14.3914 H       1  UNL1        0.1233
     35 C          64.9222   91.0451   14.5675 C.3     1  UNL1        0.0851
     36 C          65.4393   91.9443   15.6511 C.3     1  UNL1        0.0774
     37 N          64.4880   92.5526   16.6385 N.3     1  UNL1       -0.3204
     38 H          65.0073   93.1310   17.2989 H       1  UNL1        0.1189
     39 H          64.0027   91.8115   17.1440 H       1  UNL1        0.1189
     40 C          66.9077   92.2352   15.7472 C.3     1  UNL1        0.0703
     41 S          67.4697   93.4743   15.1158 S.3     1  UNL1       -0.1665
     42 H          67.3420   93.3923   13.7643 H       1  UNL1        0.1023
@<TRIPOS>BOND
     1    31    32    1
     2    32    29    1
     3    29    30    1
     4    29    28    1
     5    28    27    1
     6    27    26    1
     7    26     1    1
     8     1    19    1
     9    19    20    1
    10    20    21   ar
    11    21    22   ar
    12    22    23   ar
    13    23    24   ar
    14    24    25   ar
    15     1     2    1
    16     2     3    2
    17     2     4   am
    18     4     6    1
    19     6    13    1
    20    13    14    1
    21    14    15    1
    22    15    16    1
    23    15    17    2
    24    15    18    2
    25     6     7    1
    26     7     8    2
    27     7     9    1
    28     9    10    1
    29    10    11    1
    30    10    12    1
    31    28    33    1
    32    33    35    1
    33    35    36    1
    34    36    37    1
    35    36    40    1
    36    40    41    1
    37    25    20   ar
    38     4     5    1
    39    33    34    1
    40    37    38    1
    41    37    39    1
    42    41    42    1
@<TRIPOS>MOLECULE
*****
 42 42 0 0 0
SMALL
GASTEIGER

@<TRIPOS>ATOM
      1 C          63.9004   89.5437   13.5367 C.3     1  UNL1        0.1951
      2 C          64.2933   90.9336   13.1319 C.2     1  UNL1        0.2503
      3 O          63.2392   91.9287   12.7464 O.2     1  UNL1       -0.2725
      4 N          65.7403   91.3284   13.1127 N.am    1  UNL1       -0.2948
      5 H          66.4321   90.6752   13.3657 H       1  UNL1        0.1499
      6 C          66.1332   92.7182   12.7079 C.3     1  UNL1        0.1732
      7 C          66.1912   93.0882   11.2553 C.2     1  UNL1        0.3349
      8 O          65.1005   92.6471   10.3249 O.2     1  UNL1       -0.2483
      9 O          67.3398   93.8994   10.7332 O.3     1  UNL1       -0.4512
     10 C          67.8231   93.6974    9.3277 C.3     1  UNL1        0.1691
     11 C          68.6185   92.4752    8.9764 C.3     1  UNL1        0.0473
     12 C          67.5108   94.7177    8.2734 C.3     1  UNL1        0.0473
     13 C          66.4682   93.7381   13.7555 C.3     1  UNL1        0.0564
     14 C          66.6162   93.3205   15.1886 C.3     1  UNL1        0.1532
     15 S          67.9545   92.8868   15.7090 S.O2    1  UNL1       -0.0082
     16 C          69.2928   92.4532   16.2295 C.3     1  UNL1        0.1760
     17 O          68.2917   94.3127   16.0302 O.2     1  UNL1       -0.1729
     18 O          67.6174   91.4610   15.3878 O.2     1  UNL1       -0.1729
     19 C          64.6840   88.8199   14.5911 C.3     1  UNL1        0.0653
     20 C          64.0270   87.7499   15.4118 C.ar    1  UNL1       -0.0192
     21 C          63.2549   88.1177   16.6441 C.ar    1  UNL1       -0.0042
     22 C          62.5980   87.0477   17.4648 C.ar    1  UNL1       -0.0003
     23 C          62.7130   85.6099   17.0531 C.ar    1  UNL1       -0.0000
     24 C          63.4851   85.2421   15.8208 C.ar    1  UNL1       -0.0003
     25 C          64.1421   86.3121   15.0002 C.ar    1  UNL1       -0.0042
     26 O          62.7237   88.8777   12.8870 O.3     1  UNL1       -0.3453
     27 C          62.9174   88.0555   11.6475 C.3     1  UNL1        0.1583
     28 C          61.9588   86.9477   11.3249 C.3     1  UNL1        0.0840
     29 C          60.8885   87.1581   10.2953 C.3     1  UNL1        0.0169
     30 C          59.8515   88.2226   10.4982 C.3     1  UNL1        0.0015
     31 C          59.7692   86.4959    8.0462 C.3     1  UNL1        0.0000
     32 C          60.8554   86.3039    9.0627 C.3     1  UNL1        0.0014
     33 N          62.0705   85.6296   12.0321 N.3     1  UNL1       -0.2954
     34 H          61.1308   85.2347   12.0691 H       1  UNL1        0.1233
     35 C          62.9687   84.5594   11.4863 C.3     1  UNL1        0.0851
     36 C          63.3978   83.4208   12.3636 C.3     1  UNL1        0.0774
     37 N          64.7916   83.3841   12.9166 N.3     1  UNL1       -0.3204
     38 H          64.9092   82.5465   13.4867 H       1  UNL1        0.1189
     39 H          64.9514   84.2116   13.4911 H       1  UNL1        0.1189
     40 C          62.4330   82.3190   12.6878 C.3     1  UNL1        0.0703
     41 S          62.3557   81.7766   14.0842 S.3     1  UNL1       -0.1665
     42 H          63.5245   81.1542   14.3941 H       1  UNL1        0.1023
@<TRIPOS>BOND
     1    31    32    1
     2    32    29    1
     3    29    30    1
     4    29    28    1
     5    28    27    1
     6    27    26    1
     7    26     1    1
     8     1    19    1
     9    19    20    1
    10    20    21   ar
    11    21    22   ar
    12    22    23   ar
    13    23    24   ar
    14    24    25   ar
    15     1     2    1
    16     2     3    2
    17     2     4   am
    18     4     6    1
    19     6    13    1
    20    13    14    1
    21    14    15    1
    22    15    16    1
    23    15    17    2
    24    15    18    2
    25     6     7    1
    26     7     8    2
    27     7     9    1
    28     9    10    1
    29    10    11    1
    30    10    12    1
    31    28    33    1
    32    33    35    1
    33    35    36    1
    34    36    37    1
    35    36    40    1
    36    40    41    1
    37    25    20   ar
    38     4     5    1
    39    33    34    1
    40    37    38    1
    41    37    39    1
    42    41    42    1
