@<TRIPOS>MOLECULE
*****
 42 46 0 0 0
SMALL
GASTEIGER

@<TRIPOS>ATOM
      1 C          63.0292   85.1994   12.3222 C.2     1  UNL1        0.0332
      2 C          62.3465   86.0604   11.3012 C.2     1  UNL1        0.0101
      3 C          62.4236   87.5546   11.4077 C.2     1  UNL1        0.0255
      4 C          61.7408   88.4156   10.3866 C.3     1  UNL1        0.0351
      5 C          63.1834   88.1879   12.5354 C.2     1  UNL1        0.2278
      6 N          63.4320   89.6221   12.8975 N.2     1  UNL1       -0.0345
      7 C          64.2684   89.6475   14.1425 C.2     1  UNL1        0.3649
      8 N          64.5367   88.2290   14.5497 N.2     1  UNL1       -0.0380
      9 C          63.8662   87.3269   13.5564 C.2     1  UNL1        0.2184
     10 C          63.7890   85.8327   13.4498 C.3     1  UNL1        0.1186
     11 C          64.7516   90.8758   14.8551 C.3     1  UNL1        0.2250
     12 C          65.7978   91.7461   14.2242 C.2     1  UNL1        0.0436
     13 C          66.2810   92.9744   14.9369 C.2     1  UNL1        0.0288
     14 C          65.7180   93.3324   16.2804 C.2     1  UNL1        0.0896
     15 N          64.6718   92.4620   16.9112 N.am    1  UNL1       -0.1770
     16 C          64.1886   91.2338   16.1985 C.2     1  UNL1        0.2627
     17 O          63.1424   90.3634   16.8294 O.2     1  UNL1       -0.2719
     18 N          66.3609   91.3882   12.8808 N.pl3   1  UNL1       -0.3329
     19 H          65.9570   90.6596   12.3561 H       1  UNL1        0.1466
     20 C          67.5391   92.1403   12.3368 C.3     1  UNL1        0.1211
     21 C          67.5233   92.6373   10.9216 C.3     1  UNL1        0.1522
     22 O          67.9376   91.7281    9.8028 O.3     1  UNL1       -0.3783
     23 H          68.1840   90.8623   10.1641 H       1  UNL1        0.2109
     24 C          67.0930   94.0433   10.6252 C.ar    1  UNL1        0.0067
     25 C          66.2465   94.7923   11.6113 C.ar    1  UNL1       -0.0018
     26 C          65.8162   96.1984   11.3150 C.ar    1  UNL1        0.0006
     27 C          66.2326   96.8556   10.0325 C.ar    1  UNL1        0.0114
     28 C          67.0791   96.1066    9.0464 C.ar    1  UNL1        0.0574
     29 CL         67.4954   96.7638    7.7639 Cl      1  UNL1       -0.0823
     30 C          67.5093   94.7005    9.3427 C.ar    1  UNL1        0.0095
     31 C          62.7979   80.7167   12.0027 C.3     1  UNL1        0.0782
     32 C          62.2845   81.4086   13.2306 C.3     1  UNL1        0.0411
     33 C          62.3616   82.9028   13.3370 C.3     1  UNL1        0.0922
     34 N          62.9521   83.7052   12.2156 N.pl3   1  UNL1       -0.3102
     35 C          63.4655   83.0133   10.9878 C.3     1  UNL1        0.0922
     36 C          63.3884   81.5190   10.8813 C.3     1  UNL1        0.0411
     37 C          62.6982   78.5669   10.5472 C.2     1  UNL1        0.4017
     38 O          62.7528   79.4055    9.3048 O.2     1  UNL1       -0.2264
     39 N          62.7208   79.2225   11.8962 N.am    1  UNL1       -0.2722
     40 H          62.6850   78.6721   12.7117 H       1  UNL1        0.1527
     41 C          63.8330   76.2860   10.0378 C.3     1  UNL1        0.2573
     42 O          62.6211   77.0726   10.4408 O.3     1  UNL1       -0.4306
@<TRIPOS>BOND
     1    41    42    1
     2    42    37    1
     3    37    38    2
     4    37    39   am
     5    39    31    1
     6    31    32    1
     7    32    33    1
     8    33    34    1
     9    34     1    1
    10     1     2    2
    11     2     3    1
    12     3     4    1
    13     3     5    2
    14     5     6    1
    15     6     7    2
    16     7    11    1
    17    11    12    1
    18    12    18    1
    19    18    20    1
    20    20    21    1
    21    21    22    1
    22    21    24    1
    23    24    25   ar
    24    25    26   ar
    25    26    27   ar
    26    27    28   ar
    27    28    29    1
    28    28    30   ar
    29    12    13    2
    30    13    14    1
    31    14    15    2
    32    15    16    1
    33    16    17    2
    34     7     8    1
    35     8     9    2
    36     9    10    1
    37    34    35    1
    38    35    36    1
    39    36    31    1
    40    10     1    1
    41     9     5    1
    42    16    11    1
    43    30    24   ar
    44    39    40    1
    45    18    19    1
    46    22    23    1
@<TRIPOS>MOLECULE
*****
 42 46 0 0 0
SMALL
GASTEIGER

@<TRIPOS>ATOM
      1 C          59.7047   90.0370    6.5064 C.2     1  UNL1        0.0332
      2 C          58.2968   90.4560    6.2033 C.2     1  UNL1        0.0101
      3 C          58.0165   91.3542    5.0350 C.2     1  UNL1        0.0255
      4 C          56.6084   91.7732    4.7320 C.3     1  UNL1        0.0351
      5 C          59.1443   91.8332    4.1698 C.2     1  UNL1        0.2278
      6 N          59.1745   92.7188    2.9596 N.2     1  UNL1       -0.0345
      7 C          60.6013   92.8471    2.5147 C.2     1  UNL1        0.3649
      8 N          61.4528   92.0407    3.4499 N.2     1  UNL1       -0.0380
      9 C          60.5523   91.4141    4.4729 C.2     1  UNL1        0.2184
     10 C          60.8325   90.5160    5.6411 C.3     1  UNL1        0.1186
     11 C          61.0906   93.6422    1.3406 C.3     1  UNL1        0.2250
     12 C          60.1583   93.9609    0.2097 C.2     1  UNL1        0.0436
     13 C          60.6477   94.7560   -0.9644 C.2     1  UNL1        0.0288
     14 C          62.0694   95.2323   -1.0075 C.2     1  UNL1        0.0896
     15 N          63.0018   94.9136    0.1235 N.am    1  UNL1       -0.1770
     16 C          62.5123   94.1185    1.2976 C.2     1  UNL1        0.2627
     17 O          63.4447   93.7997    2.4285 O.2     1  UNL1       -0.2719
     18 N          58.7366   93.4847    0.2526 N.pl3   1  UNL1       -0.3329
     19 H          58.4156   92.9623    1.0229 H       1  UNL1        0.1466
     20 C          57.8040   93.8043   -0.8779 C.3     1  UNL1        0.1211
     21 C          57.2800   92.7036   -1.7519 C.3     1  UNL1        0.1522
     22 O          56.6783   91.4767   -1.1332 O.3     1  UNL1       -0.3783
     23 H          56.7057   91.5553   -0.1668 H       1  UNL1        0.2109
     24 C          57.3577   92.8297   -3.2445 C.ar    1  UNL1        0.0067
     25 C          58.3715   93.7424   -3.8683 C.ar    1  UNL1       -0.0018
     26 C          58.4492   93.8686   -5.3610 C.ar    1  UNL1        0.0006
     27 C          57.5131   93.0820   -6.2299 C.ar    1  UNL1        0.0114
     28 C          56.4993   92.1694   -5.6061 C.ar    1  UNL1        0.0574
     29 CL         55.5631   91.3829   -6.4750 Cl      1  UNL1       -0.0823
     30 C          56.4216   92.0432   -4.1134 C.ar    1  UNL1        0.0095
     31 C          60.5455   87.3425   10.0111 C.3     1  UNL1        0.0782
     32 C          59.9204   86.7828    8.7678 C.3     1  UNL1        0.0411
     33 C          59.6401   87.6810    7.5996 C.3     1  UNL1        0.0922
     34 N          59.9850   89.1388    7.6747 N.pl3   1  UNL1       -0.3102
     35 C          60.6101   89.6985    8.9179 C.3     1  UNL1        0.0922
     36 C          60.8904   88.8004   10.0862 C.3     1  UNL1        0.0411
     37 C          61.9583   85.4629   11.1160 C.2     1  UNL1        0.4017
     38 O          62.8106   85.3796    9.8846 O.2     1  UNL1       -0.2264
     39 N          60.8258   86.4444   11.1794 N.am    1  UNL1       -0.2722
     40 H          60.2664   86.4991   11.9876 H       1  UNL1        0.1527
     41 C          63.3312   84.9115   13.2517 C.3     1  UNL1        0.2573
     42 O          62.2386   84.5647   12.2844 O.3     1  UNL1       -0.4306
@<TRIPOS>BOND
     1    41    42    1
     2    42    37    1
     3    37    38    2
     4    37    39   am
     5    39    31    1
     6    31    32    1
     7    32    33    1
     8    33    34    1
     9    34     1    1
    10     1     2    2
    11     2     3    1
    12     3     4    1
    13     3     5    2
    14     5     6    1
    15     6     7    2
    16     7    11    1
    17    11    12    1
    18    12    18    1
    19    18    20    1
    20    20    21    1
    21    21    22    1
    22    21    24    1
    23    24    25   ar
    24    25    26   ar
    25    26    27   ar
    26    27    28   ar
    27    28    29    1
    28    28    30   ar
    29    12    13    2
    30    13    14    1
    31    14    15    2
    32    15    16    1
    33    16    17    2
    34     7     8    1
    35     8     9    2
    36     9    10    1
    37    34    35    1
    38    35    36    1
    39    36    31    1
    40    10     1    1
    41     9     5    1
    42    16    11    1
    43    30    24   ar
    44    39    40    1
    45    18    19    1
    46    22    23    1
@<TRIPOS>MOLECULE
*****
 42 46 0 0 0
SMALL
GASTEIGER

@<TRIPOS>ATOM
      1 C          60.1705   89.1238    8.2465 C.2     1  UNL1        0.0332
      2 C          59.6511   89.5544    9.5861 C.2     1  UNL1        0.0101
      3 C          60.0375   88.7940   10.8201 C.2     1  UNL1        0.0255
      4 C          59.5180   89.2247   12.1598 C.3     1  UNL1        0.0351
      5 C          60.9433   87.6031   10.7143 C.2     1  UNL1        0.2278
      6 N          61.4923   86.6648   11.7478 N.2     1  UNL1       -0.0345
      7 C          62.3510   85.6542   11.0468 C.2     1  UNL1        0.3649
      8 N          62.3327   85.9680    9.5801 N.2     1  UNL1       -0.0380
      9 C          61.4627   87.1725    9.3746 C.2     1  UNL1        0.2184
     10 C          61.0763   87.9329    8.1407 C.3     1  UNL1        0.1186
     11 C          63.0971   84.5277   11.6982 C.3     1  UNL1        0.2250
     12 C          63.5101   84.6340   13.1363 C.2     1  UNL1        0.0436
     13 C          64.2562   83.5074   13.7875 C.2     1  UNL1        0.0288
     14 C          64.5892   82.2745   13.0008 C.2     1  UNL1        0.0896
     15 N          64.1761   82.1681   11.5627 N.am    1  UNL1       -0.1770
     16 C          63.4301   83.2947   10.9115 C.2     1  UNL1        0.2627
     17 O          63.0170   83.1884    9.4734 O.2     1  UNL1       -0.2719
     18 N          63.1771   85.8669   13.9231 N.pl3   1  UNL1       -0.3329
     19 H          62.2389   86.0781   14.1334 H       1  UNL1        0.1466
     20 C          64.2737   86.7780   14.3893 C.3     1  UNL1        0.1211
     21 C          63.9417   88.1427   14.9160 C.3     1  UNL1        0.1522
     22 O          63.3842   88.2973   16.3000 O.3     1  UNL1       -0.3783
     23 H          63.3016   87.4244   16.7147 H       1  UNL1        0.2109
     24 C          64.1672   89.3528   14.0588 C.ar    1  UNL1        0.0067
     25 C          65.1376   90.4103   14.4944 C.ar    1  UNL1       -0.0018
     26 C          65.3631   91.6204   13.6371 C.ar    1  UNL1        0.0006
     27 C          64.6181   91.7729   12.3441 C.ar    1  UNL1        0.0114
     28 C          63.6478   90.7153   11.9085 C.ar    1  UNL1        0.0574
     29 CL         62.9028   90.8678   10.6155 Cl      1  UNL1       -0.0823
     30 C          63.4223   89.5053   12.7658 C.ar    1  UNL1        0.0095
     31 C          59.0113   91.4046    4.5446 C.3     1  UNL1        0.0782
     32 C          57.9493   90.8454    5.4442 C.3     1  UNL1        0.0411
     33 C          58.3357   90.0851    6.6782 C.3     1  UNL1        0.0922
     34 N          59.7841   89.8841    7.0125 N.pl3   1  UNL1       -0.3102
     35 C          60.8461   90.4433    6.1129 C.3     1  UNL1        0.0922
     36 C          60.4597   91.2036    4.8788 C.3     1  UNL1        0.0411
     37 C          59.6825   92.8124    2.4667 C.2     1  UNL1        0.4017
     38 O          61.1264   92.6996    2.8567 O.2     1  UNL1       -0.2264
     39 N          58.6249   92.1649    3.3106 N.am    1  UNL1       -0.2722
     40 H          57.6772   92.2390    3.0546 H       1  UNL1        0.1527
     41 C          59.3443   92.9013   -0.1078 C.3     1  UNL1        0.2573
     42 O          59.2960   93.5727    1.2327 O.3     1  UNL1       -0.4306
@<TRIPOS>BOND
     1    41    42    1
     2    42    37    1
     3    37    38    2
     4    37    39   am
     5    39    31    1
     6    31    32    1
     7    32    33    1
     8    33    34    1
     9    34     1    1
    10     1     2    2
    11     2     3    1
    12     3     4    1
    13     3     5    2
    14     5     6    1
    15     6     7    2
    16     7    11    1
    17    11    12    1
    18    12    18    1
    19    18    20    1
    20    20    21    1
    21    21    22    1
    22    21    24    1
    23    24    25   ar
    24    25    26   ar
    25    26    27   ar
    26    27    28   ar
    27    28    29    1
    28    28    30   ar
    29    12    13    2
    30    13    14    1
    31    14    15    2
    32    15    16    1
    33    16    17    2
    34     7     8    1
    35     8     9    2
    36     9    10    1
    37    34    35    1
    38    35    36    1
    39    36    31    1
    40    10     1    1
    41     9     5    1
    42    16    11    1
    43    30    24   ar
    44    39    40    1
    45    18    19    1
    46    22    23    1
@<TRIPOS>MOLECULE
*****
 42 46 0 0 0
SMALL
GASTEIGER

@<TRIPOS>ATOM
      1 C          63.4242   85.4497   14.4863 C.2     1  UNL1        0.0332
      2 C          63.1036   85.9122   15.8767 C.2     1  UNL1        0.0101
      3 C          63.3332   87.3434   16.2626 C.2     1  UNL1        0.0255
      4 C          63.0126   87.8059   17.6531 C.3     1  UNL1        0.0351
      5 C          63.8834   88.3121   15.2581 C.2     1  UNL1        0.2278
      6 N          64.2125   89.7727   15.3482 N.2     1  UNL1       -0.0345
      7 C          64.7364   90.2129   14.0134 C.2     1  UNL1        0.3649
      8 N          64.7311   89.0243   13.0984 N.2     1  UNL1       -0.0380
      9 C          64.2039   87.8495   13.8677 C.2     1  UNL1        0.2184
     10 C          63.9743   86.4183   13.4818 C.3     1  UNL1        0.1186
     11 C          65.1866   91.5985   13.6562 C.3     1  UNL1        0.2250
     12 C          65.0155   92.1047   12.2546 C.2     1  UNL1        0.0436
     13 C          65.4658   93.4903   11.8975 C.2     1  UNL1        0.0288
     14 C          66.0871   94.3696   12.9419 C.2     1  UNL1        0.0896
     15 N          66.2582   93.8634   14.3435 N.am    1  UNL1       -0.1770
     16 C          65.8079   92.4778   14.7006 C.2     1  UNL1        0.2627
     17 O          65.9790   91.9715   16.1022 O.2     1  UNL1       -0.2719
     18 N          64.3942   91.2255   11.2102 N.pl3   1  UNL1       -0.3329
     19 H          64.9576   90.6145   10.6825 H       1  UNL1        0.1466
     20 C          62.9146   91.2772   10.9696 C.3     1  UNL1        0.1211
     21 C          62.0438   90.1357   11.4040 C.3     1  UNL1        0.1522
     22 O          61.6315   90.0115   12.8409 O.3     1  UNL1       -0.3783
     23 H          62.0106   90.7446   13.3506 H       1  UNL1        0.2109
     24 C          61.5853   89.1185   10.4015 C.ar    1  UNL1        0.0067
     25 C          60.3582   89.3768    9.5784 C.ar    1  UNL1       -0.0018
     26 C          59.8997   88.3595    8.5759 C.ar    1  UNL1        0.0006
     27 C          60.6683   87.0839    8.3965 C.ar    1  UNL1        0.0114
     28 C          61.8953   86.8257    9.2197 C.ar    1  UNL1        0.0574
     29 CL         62.6639   85.5500    9.0403 Cl      1  UNL1       -0.0823
     30 C          62.3538   87.8429   10.2222 C.ar    1  UNL1        0.0095
     31 C          62.7355   81.1560   13.3283 C.3     1  UNL1        0.0782
     32 C          63.9103   81.9040   12.7711 C.3     1  UNL1        0.0411
     33 C          64.1398   83.3352   13.1571 C.3     1  UNL1        0.0922
     34 N          63.1946   84.0184   14.1003 N.pl3   1  UNL1       -0.3102
     35 C          62.0199   83.2705   14.6576 C.3     1  UNL1        0.0922
     36 C          61.7903   81.8393   14.2716 C.3     1  UNL1        0.0411
     37 C          62.6224   79.3075   11.5063 C.2     1  UNL1        0.4017
     38 O          62.9683   80.3212   10.4563 O.2     1  UNL1       -0.2264
     39 N          62.5060   79.7249   12.9423 N.am    1  UNL1       -0.2722
     40 H          62.2789   79.0595   13.6315 H       1  UNL1        0.1527
     41 C          63.3136   77.2058   10.1443 C.3     1  UNL1        0.2573
     42 O          62.3928   77.8762   11.1203 O.3     1  UNL1       -0.4306
@<TRIPOS>BOND
     1    41    42    1
     2    42    37    1
     3    37    38    2
     4    37    39   am
     5    39    31    1
     6    31    32    1
     7    32    33    1
     8    33    34    1
     9    34     1    1
    10     1     2    2
    11     2     3    1
    12     3     4    1
    13     3     5    2
    14     5     6    1
    15     6     7    2
    16     7    11    1
    17    11    12    1
    18    12    18    1
    19    18    20    1
    20    20    21    1
    21    21    22    1
    22    21    24    1
    23    24    25   ar
    24    25    26   ar
    25    26    27   ar
    26    27    28   ar
    27    28    29    1
    28    28    30   ar
    29    12    13    2
    30    13    14    1
    31    14    15    2
    32    15    16    1
    33    16    17    2
    34     7     8    1
    35     8     9    2
    36     9    10    1
    37    34    35    1
    38    35    36    1
    39    36    31    1
    40    10     1    1
    41     9     5    1
    42    16    11    1
    43    30    24   ar
    44    39    40    1
    45    18    19    1
    46    22    23    1
@<TRIPOS>MOLECULE
*****
 42 46 0 0 0
SMALL
GASTEIGER

@<TRIPOS>ATOM
      1 C          60.1128   89.9140    6.7899 C.2     1  UNL1        0.0332
      2 C          59.3307   88.6484    6.9801 C.2     1  UNL1        0.0101
      3 C          59.5863   87.7814    8.1773 C.2     1  UNL1        0.0255
      4 C          58.8042   86.5156    8.3674 C.3     1  UNL1        0.0351
      5 C          60.6241   88.1803    9.1842 C.2     1  UNL1        0.2278
      6 N          61.0926   87.5322   10.4532 N.2     1  UNL1       -0.0345
      7 C          62.1643   88.3974   11.0473 C.2     1  UNL1        0.3649
      8 N          62.3581   89.5802   10.1455 N.2     1  UNL1       -0.0380
      9 C          61.4062   89.4461    8.9940 C.2     1  UNL1        0.2184
     10 C          61.1505   90.3129    7.7969 C.3     1  UNL1        0.1186
     11 C          62.9111   88.1272   12.3198 C.3     1  UNL1        0.2250
     12 C          63.3967   89.2699   13.1615 C.2     1  UNL1        0.0436
     13 C          64.1435   88.9996   14.4340 C.2     1  UNL1        0.0288
     14 C          64.4046   87.5867   14.8649 C.2     1  UNL1        0.0896
     15 N          63.9190   86.4441   14.0232 N.am    1  UNL1       -0.1770
     16 C          63.1722   86.7143   12.7507 C.2     1  UNL1        0.2627
     17 O          62.6865   85.5717   11.9090 O.2     1  UNL1       -0.2719
     18 N          63.1357   90.6827   12.7307 N.pl3   1  UNL1       -0.3329
     19 H          62.3487   91.1645   13.0739 H       1  UNL1        0.1466
     20 C          64.0736   91.3616   11.7771 C.3     1  UNL1        0.1211
     21 C          65.1390   92.2796   12.2988 C.3     1  UNL1        0.1522
     22 O          65.3280   92.4453   13.7776 O.3     1  UNL1       -0.3783
     23 H          64.6853   91.8930   14.2496 H       1  UNL1        0.2109
     24 C          66.0153   93.0319   11.3417 C.ar    1  UNL1        0.0067
     25 C          65.9022   94.5238   11.2354 C.ar    1  UNL1       -0.0018
     26 C          66.7785   95.2762   10.2783 C.ar    1  UNL1        0.0006
     27 C          67.7680   94.5366    9.4275 C.ar    1  UNL1        0.0114
     28 C          67.8812   93.0447    9.5338 C.ar    1  UNL1        0.0574
     29 CL         68.8707   92.3051    8.6830 Cl      1  UNL1       -0.0823
     30 C          67.0048   92.2923   10.4909 C.ar    1  UNL1        0.0095
     31 C          59.3457   92.5148    3.1985 C.3     1  UNL1        0.0782
     32 C          58.1989   92.0476    4.0449 C.3     1  UNL1        0.0411
     33 C          58.4546   91.1807    5.2420 C.3     1  UNL1        0.0922
     34 N          59.8571   90.7810    5.5928 N.pl3   1  UNL1       -0.3102
     35 C          61.0040   91.2482    4.7465 C.3     1  UNL1        0.0922
     36 C          60.7483   92.1151    3.5493 C.3     1  UNL1        0.0411
     37 C          59.5891   92.9614    0.6508 C.2     1  UNL1        0.4017
     38 O          60.3437   91.6743    0.4972 O.2     1  UNL1       -0.2264
     39 N          59.0901   93.3817    2.0014 N.am    1  UNL1       -0.2722
     40 H          58.5947   94.2265    2.1022 H       1  UNL1        0.1527
     41 C          59.4067   93.2432   -1.9255 C.3     1  UNL1        0.2573
     42 O          59.3333   93.8284   -0.5464 O.3     1  UNL1       -0.4306
@<TRIPOS>BOND
     1    41    42    1
     2    42    37    1
     3    37    38    2
     4    37    39   am
     5    39    31    1
     6    31    32    1
     7    32    33    1
     8    33    34    1
     9    34     1    1
    10     1     2    2
    11     2     3    1
    12     3     4    1
    13     3     5    2
    14     5     6    1
    15     6     7    2
    16     7    11    1
    17    11    12    1
    18    12    18    1
    19    18    20    1
    20    20    21    1
    21    21    22    1
    22    21    24    1
    23    24    25   ar
    24    25    26   ar
    25    26    27   ar
    26    27    28   ar
    27    28    29    1
    28    28    30   ar
    29    12    13    2
    30    13    14    1
    31    14    15    2
    32    15    16    1
    33    16    17    2
    34     7     8    1
    35     8     9    2
    36     9    10    1
    37    34    35    1
    38    35    36    1
    39    36    31    1
    40    10     1    1
    41     9     5    1
    42    16    11    1
    43    30    24   ar
    44    39    40    1
    45    18    19    1
    46    22    23    1
@<TRIPOS>MOLECULE
*****
 42 46 0 0 0
SMALL
GASTEIGER

@<TRIPOS>ATOM
      1 C          60.0639   89.4424    6.9496 C.2     1  UNL1        0.0332
      2 C          59.1300   88.2718    7.0344 C.2     1  UNL1        0.0101
      3 C          59.3047   87.2498    8.1185 C.2     1  UNL1        0.0255
      4 C          58.3707   86.0791    8.2032 C.3     1  UNL1        0.0351
      5 C          60.4135   87.3986    9.1177 C.2     1  UNL1        0.2278
      6 N          60.8296   86.5574   10.2878 N.2     1  UNL1       -0.0345
      7 C          62.0208   87.2083   10.9262 C.2     1  UNL1        0.3649
      8 N          62.3408   88.4517   10.1506 N.2     1  UNL1       -0.0380
      9 C          61.3474   88.5693    9.0329 C.2     1  UNL1        0.2184
     10 C          61.1726   89.5912    7.9488 C.3     1  UNL1        0.1186
     11 C          62.7619   86.7042   12.1290 C.3     1  UNL1        0.2250
     12 C          63.4326   87.6731   13.0571 C.2     1  UNL1        0.0436
     13 C          64.1737   87.1689   14.2599 C.2     1  UNL1        0.0288
     14 C          64.2441   85.6960   14.5346 C.2     1  UNL1        0.0896
     15 N          63.5733   84.7271   13.6065 N.am    1  UNL1       -0.1770
     16 C          62.8323   85.2313   12.4037 C.2     1  UNL1        0.2627
     17 O          62.1615   84.2624   11.4756 O.2     1  UNL1       -0.2719
     18 N          63.3623   89.1460   12.7825 N.pl3   1  UNL1       -0.3329
     19 H          63.6264   89.4955   11.9008 H       1  UNL1        0.1466
     20 C          62.8896   90.0865   13.8511 C.3     1  UNL1        0.1211
     21 C          63.8616   91.0153   14.5163 C.3     1  UNL1        0.1522
     22 O          63.6245   91.4636   15.9280 O.3     1  UNL1       -0.3783
     23 H          62.8057   91.0642   16.2609 H       1  UNL1        0.2109
     24 C          65.0707   91.4958   13.7699 C.ar    1  UNL1        0.0067
     25 C          66.4323   91.3684   14.3861 C.ar    1  UNL1       -0.0018
     26 C          67.6414   91.8489   13.6397 C.ar    1  UNL1        0.0006
     27 C          67.4889   92.4568   12.2769 C.ar    1  UNL1        0.0114
     28 C          66.1273   92.5842   11.6606 C.ar    1  UNL1        0.0574
     29 CL         65.9749   93.1921   10.2978 Cl      1  UNL1       -0.0823
     30 C          64.9182   92.1037   12.4071 C.ar    1  UNL1        0.0095
     31 C          59.5394   92.5082    3.6975 C.3     1  UNL1        0.0782
     32 C          58.3502   92.0309    4.4772 C.3     1  UNL1        0.0411
     33 C          58.5250   91.0090    5.5612 C.3     1  UNL1        0.0922
     34 N          59.8891   90.4643    5.8655 N.pl3   1  UNL1       -0.3102
     35 C          61.0783   90.9415    5.0859 C.3     1  UNL1        0.0922
     36 C          60.9035   91.9635    4.0018 C.3     1  UNL1        0.0411
     37 C          59.8798   93.2537    1.2321 C.2     1  UNL1        0.4017
     38 O          60.5697   91.9555    0.9347 O.2     1  UNL1       -0.2264
     39 N          59.3646   93.5301    2.6135 N.am    1  UNL1       -0.2722
     40 H          58.9118   94.3822    2.8086 H       1  UNL1        0.1527
     41 C          58.3483   94.5145   -0.4457 C.3     1  UNL1        0.2573
     42 O          59.7049   94.2757    0.1481 O.3     1  UNL1       -0.4306
@<TRIPOS>BOND
     1    41    42    1
     2    42    37    1
     3    37    38    2
     4    37    39   am
     5    39    31    1
     6    31    32    1
     7    32    33    1
     8    33    34    1
     9    34     1    1
    10     1     2    2
    11     2     3    1
    12     3     4    1
    13     3     5    2
    14     5     6    1
    15     6     7    2
    16     7    11    1
    17    11    12    1
    18    12    18    1
    19    18    20    1
    20    20    21    1
    21    21    22    1
    22    21    24    1
    23    24    25   ar
    24    25    26   ar
    25    26    27   ar
    26    27    28   ar
    27    28    29    1
    28    28    30   ar
    29    12    13    2
    30    13    14    1
    31    14    15    2
    32    15    16    1
    33    16    17    2
    34     7     8    1
    35     8     9    2
    36     9    10    1
    37    34    35    1
    38    35    36    1
    39    36    31    1
    40    10     1    1
    41     9     5    1
    42    16    11    1
    43    30    24   ar
    44    39    40    1
    45    18    19    1
    46    22    23    1
@<TRIPOS>MOLECULE
*****
 42 46 0 0 0
SMALL
GASTEIGER

@<TRIPOS>ATOM
      1 C          62.9642   90.2387   12.7210 C.2     1  UNL1        0.0332
      2 C          61.4872   90.3680   12.9480 C.2     1  UNL1        0.0101
      3 C          60.5275   89.5749   12.1113 C.2     1  UNL1        0.0255
      4 C          59.0504   89.7043   12.3383 C.3     1  UNL1        0.0351
      5 C          61.0449   88.6525   11.0477 C.2     1  UNL1        0.2278
      6 N          60.3456   87.7505   10.0743 N.2     1  UNL1       -0.0345
      7 C          61.3906   87.0637    9.2458 C.2     1  UNL1        0.3649
      8 N          62.7356   87.5412    9.7071 N.2     1  UNL1       -0.0380
      9 C          62.5220   88.5231   10.8207 C.2     1  UNL1        0.2184
     10 C          63.4817   89.3162   11.6574 C.3     1  UNL1        0.1186
     11 C          61.1353   86.0732    8.1487 C.3     1  UNL1        0.2250
     12 C          62.1947   85.0798    7.7736 C.2     1  UNL1        0.0436
     13 C          61.9393   84.0893    6.6764 C.2     1  UNL1        0.0288
     14 C          60.6246   84.0923    5.9543 C.2     1  UNL1        0.0896
     15 N          59.5651   85.0857    6.3293 N.am    1  UNL1       -0.1770
     16 C          59.8205   86.0762    7.4265 C.2     1  UNL1        0.2627
     17 O          58.7611   87.0696    7.8016 O.2     1  UNL1       -0.2719
     18 N          63.5094   85.0767    8.4956 N.pl3   1  UNL1       -0.3329
     19 H          64.1438   85.8184    8.3663 H       1  UNL1        0.1466
     20 C          63.8577   83.9437    9.4148 C.3     1  UNL1        0.1211
     21 C          63.2980   83.9073   10.8059 C.3     1  UNL1        0.1522
     22 O          63.0188   85.1876   11.5358 O.3     1  UNL1       -0.3783
     23 H          63.2543   85.9400   10.9706 H       1  UNL1        0.2109
     24 C          63.0175   82.5905   11.4673 C.ar    1  UNL1        0.0067
     25 C          62.6737   82.5422   12.9265 C.ar    1  UNL1       -0.0018
     26 C          62.3932   81.2254   13.5878 C.ar    1  UNL1        0.0006
     27 C          62.4565   79.9568   12.7899 C.ar    1  UNL1        0.0114
     28 C          62.8003   80.0051   11.3306 C.ar    1  UNL1        0.0574
     29 CL         62.8637   78.7365   10.5327 Cl      1  UNL1       -0.0823
     30 C          63.0808   81.3219   10.6693 C.ar    1  UNL1        0.0095
     31 C          65.8433   92.6179   15.2312 C.3     1  UNL1        0.0782
     32 C          64.8708   91.6834   15.8877 C.3     1  UNL1        0.0411
     33 C          63.9111   90.8904   15.0510 C.3     1  UNL1        0.0922
     34 N          63.9240   91.0318   13.5577 N.pl3   1  UNL1       -0.3102
     35 C          64.8964   91.9662   12.9012 C.3     1  UNL1        0.0922
     36 C          65.8562   92.7593   13.7379 C.3     1  UNL1        0.0411
     37 C          68.2556   93.4626   15.6974 C.2     1  UNL1        0.4017
     38 O          68.7485   92.7212   14.4902 O.2     1  UNL1       -0.2264
     39 N          66.8030   93.4109   16.0679 N.am    1  UNL1       -0.2722
     40 H          66.4795   93.8975   16.8602 H       1  UNL1        0.1527
     41 C          70.4817   94.7822   15.9270 C.3     1  UNL1        0.2573
     42 O          69.2152   94.2557   16.5342 O.3     1  UNL1       -0.4306
@<TRIPOS>BOND
     1    41    42    1
     2    42    37    1
     3    37    38    2
     4    37    39   am
     5    39    31    1
     6    31    32    1
     7    32    33    1
     8    33    34    1
     9    34     1    1
    10     1     2    2
    11     2     3    1
    12     3     4    1
    13     3     5    2
    14     5     6    1
    15     6     7    2
    16     7    11    1
    17    11    12    1
    18    12    18    1
    19    18    20    1
    20    20    21    1
    21    21    22    1
    22    21    24    1
    23    24    25   ar
    24    25    26   ar
    25    26    27   ar
    26    27    28   ar
    27    28    29    1
    28    28    30   ar
    29    12    13    2
    30    13    14    1
    31    14    15    2
    32    15    16    1
    33    16    17    2
    34     7     8    1
    35     8     9    2
    36     9    10    1
    37    34    35    1
    38    35    36    1
    39    36    31    1
    40    10     1    1
    41     9     5    1
    42    16    11    1
    43    30    24   ar
    44    39    40    1
    45    18    19    1
    46    22    23    1
@<TRIPOS>MOLECULE
*****
 42 46 0 0 0
SMALL
GASTEIGER

@<TRIPOS>ATOM
      1 C          60.7163   88.9205    8.6896 C.2     1  UNL1        0.0332
      2 C          61.0215   89.6795    9.9468 C.2     1  UNL1        0.0101
      3 C          61.5619   88.9583   11.1459 C.2     1  UNL1        0.0255
      4 C          61.8671   89.7175   12.4032 C.3     1  UNL1        0.0351
      5 C          61.7971   87.4780   11.0877 C.2     1  UNL1        0.2278
      6 N          62.3174   86.5038   12.1027 N.2     1  UNL1       -0.0345
      7 C          62.3337   85.1426   11.4727 C.2     1  UNL1        0.3649
      8 N          61.8235   85.2756   10.0684 N.2     1  UNL1       -0.0380
      9 C          61.4919   86.7190    9.8304 C.2     1  UNL1        0.2184
     10 C          60.9515   87.4402    8.6314 C.3     1  UNL1        0.1186
     11 C          62.7815   83.8715   12.1314 C.3     1  UNL1        0.2250
     12 C          62.8003   83.7685   13.6277 C.2     1  UNL1        0.0436
     13 C          63.2482   82.4973   14.2863 C.2     1  UNL1        0.0288
     14 C          63.6772   81.3293   13.4487 C.2     1  UNL1        0.0896
     15 N          63.6584   81.4324   11.9523 N.am    1  UNL1       -0.1770
     16 C          63.2105   82.7035   11.2937 C.2     1  UNL1        0.2627
     17 O          63.1917   82.8066    9.7974 O.2     1  UNL1       -0.2719
     18 N          62.3713   84.9364   14.4654 N.pl3   1  UNL1       -0.3329
     19 H          61.7470   85.6030   14.0978 H       1  UNL1        0.1466
     20 C          62.8935   85.0889   15.8633 C.3     1  UNL1        0.1211
     21 C          62.7282   86.3919   16.5877 C.3     1  UNL1        0.1522
     22 O          61.9619   86.4417   17.8763 O.3     1  UNL1       -0.3783
     23 H          61.6434   85.5526   18.0976 H       1  UNL1        0.2109
     24 C          63.3292   87.6451   16.0236 C.ar    1  UNL1        0.0067
     25 C          64.1710   87.5811   14.7838 C.ar    1  UNL1       -0.0018
     26 C          64.7720   88.8343   14.2196 C.ar    1  UNL1        0.0006
     27 C          64.5311   90.1516   14.8954 C.ar    1  UNL1        0.0114
     28 C          63.6893   90.2157   16.1352 C.ar    1  UNL1        0.0574
     29 CL         63.4485   91.5330   16.8109 Cl      1  UNL1       -0.0823
     30 C          63.0884   88.9624   16.6993 C.ar    1  UNL1        0.0095
     31 C          59.0949   91.0840    5.0923 C.3     1  UNL1        0.0782
     32 C          58.1762   90.2717    5.9561 C.3     1  UNL1        0.0411
     33 C          58.7166   89.5506    7.1552 C.3     1  UNL1        0.0922
     34 N          60.1758   89.6417    7.4904 N.pl3   1  UNL1       -0.3102
     35 C          61.0945   90.4539    6.6267 C.3     1  UNL1        0.0922
     36 C          60.5541   91.1751    5.4275 C.3     1  UNL1        0.0411
     37 C          59.4925   92.4899    2.9440 C.2     1  UNL1        0.4017
     38 O          60.9710   92.4535    3.1938 O.2     1  UNL1       -0.2264
     39 N          58.5544   91.8051    3.8932 N.am    1  UNL1       -0.2722
     40 H          57.5839   91.8290    3.7292 H       1  UNL1        0.1527
     41 C          59.6953   94.3835    1.1768 C.3     1  UNL1        0.2573
     42 O          58.9519   93.2110    1.7449 O.3     1  UNL1       -0.4306
@<TRIPOS>BOND
     1    41    42    1
     2    42    37    1
     3    37    38    2
     4    37    39   am
     5    39    31    1
     6    31    32    1
     7    32    33    1
     8    33    34    1
     9    34     1    1
    10     1     2    2
    11     2     3    1
    12     3     4    1
    13     3     5    2
    14     5     6    1
    15     6     7    2
    16     7    11    1
    17    11    12    1
    18    12    18    1
    19    18    20    1
    20    20    21    1
    21    21    22    1
    22    21    24    1
    23    24    25   ar
    24    25    26   ar
    25    26    27   ar
    26    27    28   ar
    27    28    29    1
    28    28    30   ar
    29    12    13    2
    30    13    14    1
    31    14    15    2
    32    15    16    1
    33    16    17    2
    34     7     8    1
    35     8     9    2
    36     9    10    1
    37    34    35    1
    38    35    36    1
    39    36    31    1
    40    10     1    1
    41     9     5    1
    42    16    11    1
    43    30    24   ar
    44    39    40    1
    45    18    19    1
    46    22    23    1
@<TRIPOS>MOLECULE
*****
 42 46 0 0 0
SMALL
GASTEIGER

@<TRIPOS>ATOM
      1 C          62.6751   86.4322   10.9948 C.2     1  UNL1        0.0332
      2 C          62.9245   85.4759   12.1231 C.2     1  UNL1        0.0101
      3 C          63.4325   85.9851   13.4395 C.2     1  UNL1        0.0255
      4 C          63.6819   85.0287   14.5678 C.3     1  UNL1        0.0351
      5 C          63.6912   87.4506   13.6274 C.2     1  UNL1        0.2278
      6 N          64.1893   88.2393   14.8020 N.2     1  UNL1       -0.0345
      7 C          64.2478   89.6831   14.3996 C.2     1  UNL1        0.3649
      8 N          63.7858   89.7867   12.9763 N.2     1  UNL1       -0.0380
      9 C          63.4419   88.4069   12.4990 C.2     1  UNL1        0.2184
     10 C          62.9338   87.8978   11.1827 C.3     1  UNL1        0.1186
     11 C          64.6905   90.8233   15.2680 C.3     1  UNL1        0.2250
     12 C          65.9261   91.5978   14.9168 C.2     1  UNL1        0.0436
     13 C          66.3687   92.7379   15.7853 C.2     1  UNL1        0.0288
     14 C          65.5758   93.1035   17.0050 C.2     1  UNL1        0.0896
     15 N          64.3402   92.3290   17.3562 N.am    1  UNL1       -0.1770
     16 C          63.8975   91.1889   16.4877 C.2     1  UNL1        0.2627
     17 O          62.6619   90.4143   16.8389 O.2     1  UNL1       -0.2719
     18 N          66.7191   91.2322   13.6972 N.pl3   1  UNL1       -0.3329
     19 H          67.0221   90.3046   13.5669 H       1  UNL1        0.1466
     20 C          67.0504   92.2799   12.6762 C.3     1  UNL1        0.1211
     21 C          65.9539   93.0873   12.0470 C.3     1  UNL1        0.1522
     22 O          64.5203   92.7036   12.2649 O.3     1  UNL1       -0.3783
     23 H          64.4786   91.9174   12.8316 H       1  UNL1        0.2109
     24 C          66.2911   94.2784   11.1999 C.ar    1  UNL1        0.0067
     25 C          66.1191   95.6631   11.7503 C.ar    1  UNL1       -0.0018
     26 C          66.4563   96.8542   10.9032 C.ar    1  UNL1        0.0006
     27 C          66.9654   96.6606    9.5056 C.ar    1  UNL1        0.0114
     28 C          67.1374   95.2759    8.9552 C.ar    1  UNL1        0.0574
     29 CL         67.6465   95.0823    7.5575 Cl      1  UNL1       -0.0823
     30 C          66.8002   94.0848    9.8023 C.ar    1  UNL1        0.0095
     31 C          61.1510   84.9048    7.0458 C.3     1  UNL1        0.0782
     32 C          62.5083   84.4947    7.5353 C.3     1  UNL1        0.0411
     33 C          63.0163   85.0039    8.8516 C.3     1  UNL1        0.0922
     34 N          62.1670   85.9231    9.6785 N.pl3   1  UNL1       -0.3102
     35 C          60.8098   86.3332    9.1890 C.3     1  UNL1        0.0922
     36 C          60.3017   85.8240    7.8727 C.3     1  UNL1        0.0411
     37 C          61.5510   84.3661    4.5359 C.2     1  UNL1        0.4017
     38 O          62.9669   84.8457    4.6586 O.2     1  UNL1       -0.2264
     39 N          60.6430   84.3956    5.7295 N.am    1  UNL1       -0.2722
     40 H          59.7137   84.0808    5.6490 H       1  UNL1        0.1527
     41 C          61.4761   84.5151    1.9432 C.3     1  UNL1        0.2573
     42 O          61.0429   83.8569    3.2196 O.3     1  UNL1       -0.4306
@<TRIPOS>BOND
     1    41    42    1
     2    42    37    1
     3    37    38    2
     4    37    39   am
     5    39    31    1
     6    31    32    1
     7    32    33    1
     8    33    34    1
     9    34     1    1
    10     1     2    2
    11     2     3    1
    12     3     4    1
    13     3     5    2
    14     5     6    1
    15     6     7    2
    16     7    11    1
    17    11    12    1
    18    12    18    1
    19    18    20    1
    20    20    21    1
    21    21    22    1
    22    21    24    1
    23    24    25   ar
    24    25    26   ar
    25    26    27   ar
    26    27    28   ar
    27    28    29    1
    28    28    30   ar
    29    12    13    2
    30    13    14    1
    31    14    15    2
    32    15    16    1
    33    16    17    2
    34     7     8    1
    35     8     9    2
    36     9    10    1
    37    34    35    1
    38    35    36    1
    39    36    31    1
    40    10     1    1
    41     9     5    1
    42    16    11    1
    43    30    24   ar
    44    39    40    1
    45    18    19    1
    46    22    23    1
