@<TRIPOS>MOLECULE
*****
 28 31 0 0 0
SMALL
GASTEIGER

@<TRIPOS>ATOM
      1 C          63.8728   90.8356   12.5179 C.ar    1  UNL1        0.0912
      2 C          64.9336   91.8140   12.1089 C.ar    1  UNL1        0.0466
      3 C          65.7493   92.5162   13.1536 C.ar    1  UNL1        0.1631
      4 C          65.5042   92.2400   14.6075 C.ar    1  UNL1        0.1193
      5 N          64.4433   91.2615   15.0165 N.ar    1  UNL1       -0.2846
      6 C          63.9783   90.7896   16.3622 C.ar    1  UNL1        0.1023
      7 C          62.8752   89.7957   16.1491 C.ar    1  UNL1        0.1195
      8 N          62.6585   89.6534   14.6717 N.ar    1  UNL1       -0.2247
      9 C          63.6277   90.5593   13.9717 C.ar    1  UNL1        0.1524
     10 O          62.7388   90.8246   10.1803 O.2     1  UNL1       -0.2697
     11 C          63.0571   90.1334   11.4730 C.2     1  UNL1        0.2536
     12 N          62.5598   88.7401   11.7209 N.am    1  UNL1       -0.2657
     13 H          62.7687   88.2865   12.5693 H       1  UNL1        0.1566
     14 C          61.7441   88.0380   10.6760 C.ar    1  UNL1        0.1345
     15 C          62.3308   86.8857    9.9158 C.ar    1  UNL1        0.0368
     16 C          61.5152   86.1835    8.8709 C.ar    1  UNL1        0.0341
     17 C          60.1129   86.6337    8.5862 C.ar    1  UNL1        0.1593
     18 F          59.2974   85.9316    7.5414 F       1  UNL1       -0.2025
     19 C          59.5263   87.7861    9.3465 C.ar    1  UNL1        0.1298
     20 N          60.3419   88.4882   10.3914 N.ar    1  UNL1       -0.2267
     21 O          66.8101   93.4947   12.7446 O.3     1  UNL1       -0.4503
     22 C          67.0532   93.7733   11.2908 C.ar    1  UNL1        0.1667
     23 C          66.4590   94.9932   10.6514 C.ar    1  UNL1        0.1364
     24 N          66.7021   95.2718    9.1977 N.ar    1  UNL1       -0.2368
     25 C          67.5392   94.3305    8.3834 C.ar    1  UNL1        0.1286
     26 C          68.1333   93.1106    9.0228 C.ar    1  UNL1        0.1623
     27 F          68.9705   92.1692    8.2085 F       1  UNL1       -0.2024
     28 C          67.8903   92.8320   10.4765 C.ar    1  UNL1        0.0703
@<TRIPOS>BOND
     1    10    11    2
     2    11    12   am
     3    12    14    1
     4    14    15   ar
     5    15    16   ar
     6    16    17   ar
     7    17    18    1
     8    17    19   ar
     9    19    20   ar
    10    11     1    1
    11     1     2   ar
    12     2     3   ar
    13     3    21    1
    14    21    22    1
    15    22    23   ar
    16    23    24   ar
    17    24    25   ar
    18    25    26   ar
    19    26    27    1
    20    26    28   ar
    21     3     4   ar
    22     4     5   ar
    23     5     6   ar
    24     6     7   ar
    25     7     8   ar
    26     8     9   ar
    27    20    14   ar
    28     9     1   ar
    29    28    22   ar
    30     9     5   ar
    31    12    13    1
@<TRIPOS>MOLECULE
*****
 28 31 0 0 0
SMALL
GASTEIGER

@<TRIPOS>ATOM
      1 C          63.5668   88.2433   13.1996 C.ar    1  UNL1        0.0912
      2 C          64.1200   89.1692   14.2420 C.ar    1  UNL1        0.0466
      3 C          64.0885   90.6524   14.0205 C.ar    1  UNL1        0.1631
      4 C          63.5038   91.2098   12.7566 C.ar    1  UNL1        0.1193
      5 N          62.9505   90.2839   11.7142 N.ar    1  UNL1       -0.2846
      6 C          62.3159   90.5399   10.3794 C.ar    1  UNL1        0.1023
      7 C          61.9552   89.2148    9.7759 C.ar    1  UNL1        0.1195
      8 N          62.3669   88.1399   10.7378 N.ar    1  UNL1       -0.2247
      9 C          62.9820   88.8007   11.9357 C.ar    1  UNL1        0.1524
     10 O          64.5435   86.1718   14.4265 O.2     1  UNL1       -0.2697
     11 C          63.5983   86.7601   13.4211 C.2     1  UNL1        0.2536
     12 N          62.6847   85.8652   12.6373 N.am    1  UNL1       -0.2657
     13 H          62.0643   86.2512   11.9775 H       1  UNL1        0.1566
     14 C          62.7163   84.3819   12.8589 C.ar    1  UNL1        0.1345
     15 C          63.0844   83.4630   11.7320 C.ar    1  UNL1        0.0368
     16 C          63.1160   81.9798   11.9534 C.ar    1  UNL1        0.0341
     17 C          62.7795   81.4155   13.3019 C.ar    1  UNL1        0.1593
     18 F          62.8111   79.9323   13.5234 F       1  UNL1       -0.2025
     19 C          62.4113   82.3345   14.4288 C.ar    1  UNL1        0.1298
     20 N          62.3797   83.8176   14.2073 N.ar    1  UNL1       -0.2267
     21 O          64.6418   91.5783   15.0630 O.3     1  UNL1       -0.4503
     22 C          66.0919   91.9609   15.0328 C.ar    1  UNL1        0.1667
     23 C          66.6882   92.7312   16.1734 C.ar    1  UNL1        0.1364
     24 N          68.1383   93.1138   16.1432 N.ar    1  UNL1       -0.2368
     25 C          68.9921   92.7259   14.9725 C.ar    1  UNL1        0.1286
     26 C          68.3958   91.9556   13.8319 C.ar    1  UNL1        0.1623
     27 F          69.2495   91.5677   12.6610 F       1  UNL1       -0.2024
     28 C          66.9457   91.5731   13.8621 C.ar    1  UNL1        0.0703
@<TRIPOS>BOND
     1    10    11    2
     2    11    12   am
     3    12    14    1
     4    14    15   ar
     5    15    16   ar
     6    16    17   ar
     7    17    18    1
     8    17    19   ar
     9    19    20   ar
    10    11     1    1
    11     1     2   ar
    12     2     3   ar
    13     3    21    1
    14    21    22    1
    15    22    23   ar
    16    23    24   ar
    17    24    25   ar
    18    25    26   ar
    19    26    27    1
    20    26    28   ar
    21     3     4   ar
    22     4     5   ar
    23     5     6   ar
    24     6     7   ar
    25     7     8   ar
    26     8     9   ar
    27    20    14   ar
    28     9     1   ar
    29    28    22   ar
    30     9     5   ar
    31    12    13    1
@<TRIPOS>MOLECULE
*****
 28 31 0 0 0
SMALL
GASTEIGER

@<TRIPOS>ATOM
      1 C          62.7885   84.8770   12.2792 C.ar    1  UNL1        0.0912
      2 C          63.1787   85.7219   13.4555 C.ar    1  UNL1        0.0466
      3 C          63.7256   85.0765   14.6940 C.ar    1  UNL1        0.1631
      4 C          63.8824   83.5859   14.7564 C.ar    1  UNL1        0.1193
      5 N          63.4922   82.7410   13.5800 N.ar    1  UNL1       -0.2846
      6 C          63.5330   81.2591   13.3511 C.ar    1  UNL1        0.1023
      7 C          63.0113   80.9888   11.9710 C.ar    1  UNL1        0.1195
      8 N          62.6480   82.3036   11.3470 N.ar    1  UNL1       -0.2247
      9 C          62.9452   83.3865   12.3414 C.ar    1  UNL1        0.1524
     10 O          62.8168   85.1781    9.6987 O.2     1  UNL1       -0.2697
     11 C          62.2415   85.5225   11.0406 C.2     1  UNL1        0.2536
     12 N          61.1193   86.5125   11.1438 N.am    1  UNL1       -0.2657
     13 H          60.7417   86.7386   12.0244 H       1  UNL1        0.1566
     14 C          60.5724   87.1580    9.9051 C.ar    1  UNL1        0.1345
     15 C          60.6711   88.6442    9.7279 C.ar    1  UNL1        0.0368
     16 C          60.1242   89.2898    8.4892 C.ar    1  UNL1        0.0341
     17 C          59.4786   88.4491    7.4279 C.ar    1  UNL1        0.1593
     18 F          58.9318   89.0947    6.1893 F       1  UNL1       -0.2025
     19 C          59.3800   86.9629    7.6052 C.ar    1  UNL1        0.1298
     20 N          59.9268   86.3174    8.8437 N.ar    1  UNL1       -0.2267
     21 O          64.1158   85.9215   15.8705 O.3     1  UNL1       -0.4503
     22 C          63.9317   87.4093   15.8192 C.ar    1  UNL1        0.1667
     23 C          63.1336   88.1033   16.8828 C.ar    1  UNL1        0.1364
     24 N          62.9495   89.5911   16.8315 N.ar    1  UNL1       -0.2368
     25 C          63.5635   90.3848   15.7167 C.ar    1  UNL1        0.1286
     26 C          64.3617   89.6908   14.6531 C.ar    1  UNL1        0.1623
     27 F          64.9758   90.4845   13.5381 F       1  UNL1       -0.2024
     28 C          64.5458   88.2030   14.7044 C.ar    1  UNL1        0.0703
@<TRIPOS>BOND
     1    10    11    2
     2    11    12   am
     3    12    14    1
     4    14    15   ar
     5    15    16   ar
     6    16    17   ar
     7    17    18    1
     8    17    19   ar
     9    19    20   ar
    10    11     1    1
    11     1     2   ar
    12     2     3   ar
    13     3    21    1
    14    21    22    1
    15    22    23   ar
    16    23    24   ar
    17    24    25   ar
    18    25    26   ar
    19    26    27    1
    20    26    28   ar
    21     3     4   ar
    22     4     5   ar
    23     5     6   ar
    24     6     7   ar
    25     7     8   ar
    26     8     9   ar
    27    20    14   ar
    28     9     1   ar
    29    28    22   ar
    30     9     5   ar
    31    12    13    1
@<TRIPOS>MOLECULE
*****
 28 31 0 0 0
SMALL
GASTEIGER

@<TRIPOS>ATOM
      1 C          62.7442   88.1502   12.0117 C.ar    1  UNL1        0.0912
      2 C          63.3874   89.3632   12.6157 C.ar    1  UNL1        0.0466
      3 C          63.1020   90.7232   12.0510 C.ar    1  UNL1        0.1631
      4 C          62.1734   90.8702   10.8822 C.ar    1  UNL1        0.1193
      5 N          61.5302   89.6572   10.2781 N.ar    1  UNL1       -0.2846
      6 C          60.5789   89.4922    9.1302 C.ar    1  UNL1        0.1023
      7 C          60.2764   88.0301    8.9854 C.ar    1  UNL1        0.1195
      8 N          61.0407   87.2916   10.0439 N.ar    1  UNL1       -0.2247
      9 C          61.8156   88.2972   10.8429 C.ar    1  UNL1        0.1524
     10 O          63.9536   86.6438   13.7491 O.2     1  UNL1       -0.2697
     11 C          63.0296   86.7902   12.5764 C.2     1  UNL1        0.2536
     12 N          62.3911   85.5766   11.9687 N.am    1  UNL1       -0.2657
     13 H          61.7846   85.6727   11.1991 H       1  UNL1        0.1566
     14 C          62.6765   84.2166   12.5335 C.ar    1  UNL1        0.1345
     15 C          62.3387   83.9122   13.9629 C.ar    1  UNL1        0.0368
     16 C          62.6241   82.5523   14.5278 C.ar    1  UNL1        0.0341
     17 C          63.2474   81.4967   13.6633 C.ar    1  UNL1        0.1593
     18 F          63.5328   80.1369   14.2282 F       1  UNL1       -0.2025
     19 C          63.5852   81.8012   12.2339 C.ar    1  UNL1        0.1298
     20 N          63.2998   83.1611   11.6690 N.ar    1  UNL1       -0.2267
     21 O          63.7453   91.9363   12.6551 O.3     1  UNL1       -0.4503
     22 C          65.2323   91.9795   12.8472 C.ar    1  UNL1        0.1667
     23 C          66.1237   92.3867   11.7117 C.ar    1  UNL1        0.1364
     24 N          67.6107   92.4300   11.9038 N.ar    1  UNL1       -0.2368
     25 C          68.2063   92.0660   13.2315 C.ar    1  UNL1        0.1286
     26 C          67.3149   91.6588   14.3671 C.ar    1  UNL1        0.1623
     27 F          67.9104   91.2948   15.6949 F       1  UNL1       -0.2024
     28 C          65.8279   91.6156   14.1749 C.ar    1  UNL1        0.0703
@<TRIPOS>BOND
     1    10    11    2
     2    11    12   am
     3    12    14    1
     4    14    15   ar
     5    15    16   ar
     6    16    17   ar
     7    17    18    1
     8    17    19   ar
     9    19    20   ar
    10    11     1    1
    11     1     2   ar
    12     2     3   ar
    13     3    21    1
    14    21    22    1
    15    22    23   ar
    16    23    24   ar
    17    24    25   ar
    18    25    26   ar
    19    26    27    1
    20    26    28   ar
    21     3     4   ar
    22     4     5   ar
    23     5     6   ar
    24     6     7   ar
    25     7     8   ar
    26     8     9   ar
    27    20    14   ar
    28     9     1   ar
    29    28    22   ar
    30     9     5   ar
    31    12    13    1
@<TRIPOS>MOLECULE
*****
 28 31 0 0 0
SMALL
GASTEIGER

@<TRIPOS>ATOM
      1 C          61.8410   87.2293   10.4064 C.ar    1  UNL1        0.0912
      2 C          62.3548   88.4936   11.0289 C.ar    1  UNL1        0.0466
      3 C          61.8415   89.8227   10.5601 C.ar    1  UNL1        0.1631
      4 C          60.8143   89.8876    9.4689 C.ar    1  UNL1        0.1193
      5 N          60.3005   88.6233    8.8464 N.ar    1  UNL1       -0.2846
      6 C          59.2957   88.3755    7.7606 C.ar    1  UNL1        0.1023
      7 C          59.1881   86.8931    7.5583 C.ar    1  UNL1        0.1195
      8 N          60.1263   86.2248    8.5191 N.ar    1  UNL1       -0.2247
      9 C          60.8138   87.2941    9.3152 C.ar    1  UNL1        0.1524
     10 O          63.0703   84.9929    9.9189 O.2     1  UNL1       -0.2697
     11 C          62.3543   85.9001   10.8752 C.2     1  UNL1        0.2536
     12 N          62.1517   85.4780   12.3003 N.am    1  UNL1       -0.2657
     13 H          61.6818   86.0734   12.9280 H       1  UNL1        0.1566
     14 C          62.6651   84.1488   12.7690 C.ar    1  UNL1        0.1345
     15 C          62.4524   82.9243   11.9292 C.ar    1  UNL1        0.0368
     16 C          62.9657   81.5950   12.3978 C.ar    1  UNL1        0.0341
     17 C          63.6917   81.4903   13.7062 C.ar    1  UNL1        0.1593
     18 F          64.2050   80.1611   14.1748 F       1  UNL1       -0.2025
     19 C          63.9044   82.7149   14.5460 C.ar    1  UNL1        0.1298
     20 N          63.3911   84.0441   14.0774 N.ar    1  UNL1       -0.2267
     21 O          62.3553   91.0871   11.1826 O.3     1  UNL1       -0.4503
     22 C          63.3954   91.0230   12.2616 C.ar    1  UNL1        0.1667
     23 C          63.1370   90.2263   13.5060 C.ar    1  UNL1        0.1364
     24 N          64.1770   90.1622   14.5850 N.ar    1  UNL1       -0.2368
     25 C          65.4754   90.8949   14.4196 C.ar    1  UNL1        0.1286
     26 C          65.7338   91.6916   13.1752 C.ar    1  UNL1        0.1623
     27 F          67.0323   92.4243   13.0098 F       1  UNL1       -0.2024
     28 C          64.6938   91.7557   12.0962 C.ar    1  UNL1        0.0703
@<TRIPOS>BOND
     1    10    11    2
     2    11    12   am
     3    12    14    1
     4    14    15   ar
     5    15    16   ar
     6    16    17   ar
     7    17    18    1
     8    17    19   ar
     9    19    20   ar
    10    11     1    1
    11     1     2   ar
    12     2     3   ar
    13     3    21    1
    14    21    22    1
    15    22    23   ar
    16    23    24   ar
    17    24    25   ar
    18    25    26   ar
    19    26    27    1
    20    26    28   ar
    21     3     4   ar
    22     4     5   ar
    23     5     6   ar
    24     6     7   ar
    25     7     8   ar
    26     8     9   ar
    27    20    14   ar
    28     9     1   ar
    29    28    22   ar
    30     9     5   ar
    31    12    13    1
@<TRIPOS>MOLECULE
*****
 28 31 0 0 0
SMALL
GASTEIGER

@<TRIPOS>ATOM
      1 C          62.6760   88.0719   11.9650 C.ar    1  UNL1        0.0912
      2 C          63.3850   89.2676   12.5286 C.ar    1  UNL1        0.0466
      3 C          63.1117   90.6331   11.9716 C.ar    1  UNL1        0.1631
      4 C          62.1294   90.8032   10.8507 C.ar    1  UNL1        0.1193
      5 N          61.4203   89.6075   10.2871 N.ar    1  UNL1       -0.2846
      6 C          60.4072   89.4664    9.1900 C.ar    1  UNL1        0.1023
      7 C          60.0543   88.0135    9.0692 C.ar    1  UNL1        0.1195
      8 N          60.8494   87.2567   10.0915 N.ar    1  UNL1       -0.2247
      9 C          61.6937   88.2419   10.8442 C.ar    1  UNL1        0.1524
     10 O          63.8890   86.5429   13.6800 O.2     1  UNL1       -0.2697
     11 C          62.9493   86.7063   12.5221 C.2     1  UNL1        0.2536
     12 N          62.2831   85.5041   11.9214 N.am    1  UNL1       -0.2657
     13 H          61.6664   85.6113   11.1615 H       1  UNL1        0.1566
     14 C          62.5565   84.1385   12.4786 C.ar    1  UNL1        0.1345
     15 C          63.0014   83.0324   11.5684 C.ar    1  UNL1        0.0368
     16 C          63.2748   81.6668   12.1255 C.ar    1  UNL1        0.0341
     17 C          63.1033   81.4072   13.5928 C.ar    1  UNL1        0.1593
     18 F          63.3767   80.0417   14.1499 F       1  UNL1       -0.2025
     19 C          62.6583   82.5134   14.5031 C.ar    1  UNL1        0.1298
     20 N          62.3849   83.8789   13.9460 N.ar    1  UNL1       -0.2267
     21 O          63.8208   91.8288   12.5352 O.3     1  UNL1       -0.4503
     22 C          65.2712   92.0550   12.2268 C.ar    1  UNL1        0.1667
     23 C          66.2925   91.9739   13.3225 C.ar    1  UNL1        0.1364
     24 N          67.7429   92.2001   13.0141 N.ar    1  UNL1       -0.2368
     25 C          68.1721   92.5073   11.6100 C.ar    1  UNL1        0.1286
     26 C          67.1508   92.5884   10.5144 C.ar    1  UNL1        0.1623
     27 F          67.5799   92.8957    9.1102 F       1  UNL1       -0.2024
     28 C          65.7004   92.3623   10.8228 C.ar    1  UNL1        0.0703
@<TRIPOS>BOND
     1    10    11    2
     2    11    12   am
     3    12    14    1
     4    14    15   ar
     5    15    16   ar
     6    16    17   ar
     7    17    18    1
     8    17    19   ar
     9    19    20   ar
    10    11     1    1
    11     1     2   ar
    12     2     3   ar
    13     3    21    1
    14    21    22    1
    15    22    23   ar
    16    23    24   ar
    17    24    25   ar
    18    25    26   ar
    19    26    27    1
    20    26    28   ar
    21     3     4   ar
    22     4     5   ar
    23     5     6   ar
    24     6     7   ar
    25     7     8   ar
    26     8     9   ar
    27    20    14   ar
    28     9     1   ar
    29    28    22   ar
    30     9     5   ar
    31    12    13    1
@<TRIPOS>MOLECULE
*****
 28 31 0 0 0
SMALL
GASTEIGER

@<TRIPOS>ATOM
      1 C          62.9497   88.2879   12.2518 C.ar    1  UNL1        0.0912
      2 C          63.2120   86.8262   12.0407 C.ar    1  UNL1        0.0466
      3 C          62.3169   86.0258   11.1419 C.ar    1  UNL1        0.1631
      4 C          61.1594   86.6870   10.4541 C.ar    1  UNL1        0.1193
      5 N          60.8971   88.1487   10.6652 N.ar    1  UNL1       -0.2846
      6 C          59.8409   89.0670   10.1257 C.ar    1  UNL1        0.1023
      7 C          60.0833   90.4351   10.6911 C.ar    1  UNL1        0.1195
      8 N          61.2893   90.3622   11.5800 N.ar    1  UNL1       -0.2247
      9 C          61.7923   88.9492   11.5640 C.ar    1  UNL1        0.1524
     10 O          64.4418   88.4546   14.3722 O.2     1  UNL1       -0.2697
     11 C          63.8449   89.0883   13.1506 C.2     1  UNL1        0.2536
     12 N          64.1433   90.5225   12.8279 N.am    1  UNL1       -0.2657
     13 H          63.7516   90.9385   12.0262 H       1  UNL1        0.1566
     14 C          65.0385   91.3229   13.7269 C.ar    1  UNL1        0.1345
     15 C          66.3454   91.8471   13.2100 C.ar    1  UNL1        0.0368
     16 C          67.2407   92.6475   14.1088 C.ar    1  UNL1        0.0341
     17 C          66.8290   92.9237   15.5245 C.ar    1  UNL1        0.1593
     18 F          67.7242   93.7240   16.4233 F       1  UNL1       -0.2025
     19 C          65.5221   92.3994   16.0414 C.ar    1  UNL1        0.1298
     20 N          64.6269   91.5990   15.1426 N.ar    1  UNL1       -0.2267
     21 O          62.5792   84.5639   10.9308 O.3     1  UNL1       -0.4503
     22 C          62.5229   83.6165   12.0923 C.ar    1  UNL1        0.1667
     23 C          62.4657   84.1498   13.4931 C.ar    1  UNL1        0.1364
     24 N          62.4094   83.2023   14.6547 N.ar    1  UNL1       -0.2368
     25 C          62.4102   81.7215   14.4154 C.ar    1  UNL1        0.1286
     26 C          62.4674   81.1882   13.0146 C.ar    1  UNL1        0.1623
     27 F          62.4682   79.7074   12.7752 F       1  UNL1       -0.2024
     28 C          62.5237   82.1357   11.8530 C.ar    1  UNL1        0.0703
@<TRIPOS>BOND
     1    10    11    2
     2    11    12   am
     3    12    14    1
     4    14    15   ar
     5    15    16   ar
     6    16    17   ar
     7    17    18    1
     8    17    19   ar
     9    19    20   ar
    10    11     1    1
    11     1     2   ar
    12     2     3   ar
    13     3    21    1
    14    21    22    1
    15    22    23   ar
    16    23    24   ar
    17    24    25   ar
    18    25    26   ar
    19    26    27    1
    20    26    28   ar
    21     3     4   ar
    22     4     5   ar
    23     5     6   ar
    24     6     7   ar
    25     7     8   ar
    26     8     9   ar
    27    20    14   ar
    28     9     1   ar
    29    28    22   ar
    30     9     5   ar
    31    12    13    1
@<TRIPOS>MOLECULE
*****
 28 31 0 0 0
SMALL
GASTEIGER

@<TRIPOS>ATOM
      1 C          62.8527   88.3899   12.1894 C.ar    1  UNL1        0.0912
      2 C          63.0527   86.9172   11.9868 C.ar    1  UNL1        0.0466
      3 C          62.1286   86.1515   11.0872 C.ar    1  UNL1        0.1631
      4 C          61.0042   86.8585   10.3899 C.ar    1  UNL1        0.1193
      5 N          60.8041   88.3312   10.5925 N.ar    1  UNL1       -0.2846
      6 C          59.7913   89.2914   10.0429 C.ar    1  UNL1        0.1023
      7 C          60.0896   90.6506   10.6029 C.ar    1  UNL1        0.1195
      8 N          61.2867   90.5304   11.4987 N.ar    1  UNL1       -0.2247
      9 C          61.7284   89.0969   11.4922 C.ar    1  UNL1        0.1524
     10 O          64.4069   88.4774   14.2696 O.2     1  UNL1       -0.2697
     11 C          63.7769   89.1556   13.0891 C.2     1  UNL1        0.2536
     12 N          64.0711   90.5994   12.8085 N.am    1  UNL1       -0.2657
     13 H          63.6577   91.0445   12.0339 H       1  UNL1        0.1566
     14 C          64.9954   91.3650   13.7084 C.ar    1  UNL1        0.1345
     15 C          66.3030   91.8764   13.1804 C.ar    1  UNL1        0.0368
     16 C          67.2273   92.6420   14.0801 C.ar    1  UNL1        0.0341
     17 C          66.8440   92.8963   15.5078 C.ar    1  UNL1        0.1593
     18 F          67.7682   93.6619   16.4075 F       1  UNL1       -0.2025
     19 C          65.5363   92.3849   16.0358 C.ar    1  UNL1        0.1298
     20 N          64.6121   91.6194   15.1361 N.ar    1  UNL1       -0.2267
     21 O          62.3287   84.6787   10.8846 O.3     1  UNL1       -0.4503
     22 C          62.8132   83.8247   12.0186 C.ar    1  UNL1        0.1667
     23 C          63.7191   82.6604   11.7468 C.ar    1  UNL1        0.1364
     24 N          64.2036   81.8064   12.8808 N.ar    1  UNL1       -0.2368
     25 C          63.7822   82.1166   14.2865 C.ar    1  UNL1        0.1286
     26 C          62.8762   83.2808   14.5583 C.ar    1  UNL1        0.1623
     27 F          62.4547   83.5911   15.9641 F       1  UNL1       -0.2024
     28 C          62.3917   84.1348   13.4243 C.ar    1  UNL1        0.0703
@<TRIPOS>BOND
     1    10    11    2
     2    11    12   am
     3    12    14    1
     4    14    15   ar
     5    15    16   ar
     6    16    17   ar
     7    17    18    1
     8    17    19   ar
     9    19    20   ar
    10    11     1    1
    11     1     2   ar
    12     2     3   ar
    13     3    21    1
    14    21    22    1
    15    22    23   ar
    16    23    24   ar
    17    24    25   ar
    18    25    26   ar
    19    26    27    1
    20    26    28   ar
    21     3     4   ar
    22     4     5   ar
    23     5     6   ar
    24     6     7   ar
    25     7     8   ar
    26     8     9   ar
    27    20    14   ar
    28     9     1   ar
    29    28    22   ar
    30     9     5   ar
    31    12    13    1
@<TRIPOS>MOLECULE
*****
 28 31 0 0 0
SMALL
GASTEIGER

@<TRIPOS>ATOM
      1 C          62.2280   87.7896   10.9935 C.ar    1  UNL1        0.0912
      2 C          62.8192   86.4156   11.1059 C.ar    1  UNL1        0.0466
      3 C          62.4693   85.3637   10.0956 C.ar    1  UNL1        0.1631
      4 C          61.5282   85.6856    8.9727 C.ar    1  UNL1        0.1193
      5 N          60.9370   87.0596    8.8603 N.ar    1  UNL1       -0.2846
      6 C          59.9875   87.6657    7.8698 C.ar    1  UNL1        0.1023
      7 C          59.7506   89.0924    8.2681 C.ar    1  UNL1        0.1195
      8 N          60.5537   89.3679    9.5047 N.ar    1  UNL1       -0.2247
      9 C          61.2869   88.1116    9.8707 C.ar    1  UNL1        0.1524
     10 O          62.0268   90.2296   11.8631 O.2     1  UNL1       -0.2697
     11 C          62.5779   88.8416   12.0039 C.2     1  UNL1        0.2536
     12 N          63.4789   88.5056   13.1551 N.am    1  UNL1       -0.2657
     13 H          63.8406   87.5947   13.2476 H       1  UNL1        0.1566
     14 C          63.8287   89.5577   14.1655 C.ar    1  UNL1        0.1345
     15 C          64.9444   90.5215   13.8890 C.ar    1  UNL1        0.0368
     16 C          65.2943   91.5736   14.8993 C.ar    1  UNL1        0.0341
     17 C          64.5286   91.6619   16.1861 C.ar    1  UNL1        0.1593
     18 F          64.8785   92.7139   17.1963 F       1  UNL1       -0.2025
     19 C          63.4129   90.6980   16.4626 C.ar    1  UNL1        0.1298
     20 N          63.0630   89.6460   15.4523 N.ar    1  UNL1       -0.2267
     21 O          63.0605   83.9896   10.2080 O.3     1  UNL1       -0.4503
     22 C          63.2039   83.3426   11.5537 C.ar    1  UNL1        0.1667
     23 C          64.1227   83.9388   12.5785 C.ar    1  UNL1        0.1364
     24 N          64.2660   83.2918   13.9242 N.ar    1  UNL1       -0.2368
     25 C          63.4906   82.0486   14.2451 C.ar    1  UNL1        0.1286
     26 C          62.5717   81.4524   13.2203 C.ar    1  UNL1        0.1623
     27 F          61.7961   80.2091   13.5410 F       1  UNL1       -0.2024
     28 C          62.4284   82.0994   11.8746 C.ar    1  UNL1        0.0703
@<TRIPOS>BOND
     1    10    11    2
     2    11    12   am
     3    12    14    1
     4    14    15   ar
     5    15    16   ar
     6    16    17   ar
     7    17    18    1
     8    17    19   ar
     9    19    20   ar
    10    11     1    1
    11     1     2   ar
    12     2     3   ar
    13     3    21    1
    14    21    22    1
    15    22    23   ar
    16    23    24   ar
    17    24    25   ar
    18    25    26   ar
    19    26    27    1
    20    26    28   ar
    21     3     4   ar
    22     4     5   ar
    23     5     6   ar
    24     6     7   ar
    25     7     8   ar
    26     8     9   ar
    27    20    14   ar
    28     9     1   ar
    29    28    22   ar
    30     9     5   ar
    31    12    13    1
