@<TRIPOS>MOLECULE
*****
 30 32 0 0 0
SMALL
GASTEIGER

@<TRIPOS>ATOM
      1 C          61.3884   87.1597    9.5819 C.3     1  UNL1        0.0295
      2 C          60.3434   87.3532    8.5233 C.3     1  UNL1        0.0048
      3 C          59.5639   86.4410    7.6231 C.3     1  UNL1        0.0004
      4 C          60.4010   88.8367    8.7377 C.3     1  UNL1        0.0048
      5 C          59.7027   90.0224    8.1407 C.3     1  UNL1        0.0004
      6 C          61.4459   88.6433    9.7963 C.3     1  UNL1        0.0295
      7 C          63.4832   83.6024   11.3728 C.ar    1  UNL1        0.1754
      8 C          63.6451   83.9121    9.9141 C.ar    1  UNL1        0.0766
      9 C          62.9469   85.0979    9.3172 C.ar    1  UNL1        0.1379
     10 C          62.0867   85.9739   10.1789 C.ar    1  UNL1        0.0150
     11 C          61.9247   85.6642   11.6376 C.ar    1  UNL1        0.0388
     12 C          62.6230   84.4784   12.2345 C.ar    1  UNL1        0.1723
     13 C          63.3852   81.2348   12.4381 C.3     1  UNL1        0.2526
     14 O          64.1814   82.4166   11.9698 O.3     1  UNL1       -0.4683
     15 O          63.1089   85.4076    7.8584 O.3     1  UNL1       -0.4716
     16 C          62.4090   84.5680    6.8312 C.3     1  UNL1        0.2525
     17 O          62.4610   84.1687   13.6933 O.3     1  UNL1       -0.4684
     18 C          63.4929   84.6334   14.6778 C.3     1  UNL1        0.2526
     19 C          62.2255   89.5555   10.6964 C.ar    1  UNL1        0.0150
     20 C          63.3959   90.3221   10.1557 C.ar    1  UNL1        0.0388
     21 C          64.1755   91.2343   11.0558 C.ar    1  UNL1        0.1723
     22 C          63.7845   91.3798   12.4967 C.ar    1  UNL1        0.1754
     23 C          62.6141   90.6132   13.0374 C.ar    1  UNL1        0.0766
     24 C          61.8346   89.7010   12.1372 C.ar    1  UNL1        0.1379
     25 O          65.3459   92.0009   10.5152 O.3     1  UNL1       -0.4684
     26 C          65.3413   93.5005   10.5507 C.3     1  UNL1        0.2526
     27 O          64.5641   92.2920   13.3968 O.3     1  UNL1       -0.4683
     28 C          65.8418   91.8163   14.0221 C.3     1  UNL1        0.2526
     29 O          60.6642   88.9344   12.6779 O.3     1  UNL1       -0.4716
     30 C          59.2665   89.3677   12.3477 C.3     1  UNL1        0.2525
@<TRIPOS>BOND
     1    13    14    1
     2    14     7    1
     3     7     8   ar
     4     8     9   ar
     5     9    15    1
     6    15    16    1
     7     9    10   ar
     8     1    10    1
     9     1     2    1
    10     2     3    1
    11     2     4    1
    12     4     5    1
    13     4     6    1
    14     6    19    1
    15    19    20   ar
    16    20    21   ar
    17    21    25    1
    18    25    26    1
    19    21    22   ar
    20    22    27    1
    21    27    28    1
    22    22    23   ar
    23    23    24   ar
    24    24    29    1
    25    29    30    1
    26    10    11   ar
    27    11    12   ar
    28    12    17    1
    29    17    18    1
    30    12     7   ar
    31     6     1    1
    32    24    19   ar
@<TRIPOS>MOLECULE
*****
 30 32 0 0 0
SMALL
GASTEIGER

@<TRIPOS>ATOM
      1 C          62.8968   85.9360   12.1510 C.3     1  UNL1        0.0295
      2 C          63.5485   84.5979   12.3378 C.3     1  UNL1        0.0048
      3 C          63.5182   83.2914   11.6016 C.3     1  UNL1        0.0004
      4 C          64.2430   85.1077   13.5657 C.3     1  UNL1        0.0048
      5 C          65.1949   84.5219   14.5661 C.3     1  UNL1        0.0004
      6 C          63.5913   86.4457   13.3790 C.3     1  UNL1        0.0295
      7 C          60.0410   87.6932    9.1499 C.ar    1  UNL1        0.1754
      8 C          61.0591   86.6818    8.7135 C.ar    1  UNL1        0.0766
      9 C          62.0110   86.0961    9.7139 C.ar    1  UNL1        0.1379
     10 C          61.9448   86.5218   11.1506 C.ar    1  UNL1        0.0150
     11 C          60.9267   87.5332   11.5870 C.ar    1  UNL1        0.0388
     12 C          59.9748   88.1189   10.5866 C.ar    1  UNL1        0.1723
     13 C          59.5899   89.2359    7.1086 C.3     1  UNL1        0.2526
     14 O          59.0891   88.2790    8.1495 O.3     1  UNL1       -0.4683
     15 O          63.0291   85.0846    9.2774 O.3     1  UNL1       -0.4716
     16 C          63.0946   84.6582    7.8408 C.3     1  UNL1        0.2525
     17 O          58.9567   89.1304   11.0231 O.3     1  UNL1       -0.4684
     18 C          59.4016   90.4527   11.5742 C.3     1  UNL1        0.2526
     19 C          63.6216   87.7523   14.1152 C.ar    1  UNL1        0.0150
     20 C          63.8597   89.0299   13.3661 C.ar    1  UNL1        0.0388
     21 C          63.8899   90.3365   14.1023 C.ar    1  UNL1        0.1723
     22 C          63.6821   90.3654   15.5876 C.ar    1  UNL1        0.1754
     23 C          63.4440   89.0878   16.3366 C.ar    1  UNL1        0.0766
     24 C          63.4137   87.7813   15.6004 C.ar    1  UNL1        0.1379
     25 O          64.1280   91.6141   13.3533 O.3     1  UNL1       -0.4684
     26 C          65.5294   92.0615   13.0600 C.3     1  UNL1        0.2526
     27 O          63.7124   91.6720   16.3238 O.3     1  UNL1       -0.4683
     28 C          65.0261   92.2925   16.6966 C.3     1  UNL1        0.2526
     29 O          63.1757   86.5037   16.3494 O.3     1  UNL1       -0.4716
     30 C          62.6686   86.5449   17.7606 C.3     1  UNL1        0.2525
@<TRIPOS>BOND
     1    13    14    1
     2    14     7    1
     3     7     8   ar
     4     8     9   ar
     5     9    15    1
     6    15    16    1
     7     9    10   ar
     8     1    10    1
     9     1     2    1
    10     2     3    1
    11     2     4    1
    12     4     5    1
    13     4     6    1
    14     6    19    1
    15    19    20   ar
    16    20    21   ar
    17    21    25    1
    18    25    26    1
    19    21    22   ar
    20    22    27    1
    21    27    28    1
    22    22    23   ar
    23    23    24   ar
    24    24    29    1
    25    29    30    1
    26    10    11   ar
    27    11    12   ar
    28    12    17    1
    29    17    18    1
    30    12     7   ar
    31     6     1    1
    32    24    19   ar
@<TRIPOS>MOLECULE
*****
 30 32 0 0 0
SMALL
GASTEIGER

@<TRIPOS>ATOM
      1 C          62.5195   85.8062   10.1836 C.3     1  UNL1        0.0295
      2 C          62.9675   84.8517    9.1167 C.3     1  UNL1        0.0048
      3 C          62.8644   84.8084    7.6208 C.3     1  UNL1        0.0004
      4 C          63.5611   83.9583   10.1652 C.3     1  UNL1        0.0048
      5 C          64.2976   82.6517   10.1522 C.3     1  UNL1        0.0004
      6 C          63.1132   84.9128   11.2322 C.3     1  UNL1        0.0295
      7 C          60.3099   89.7262   10.2226 C.ar    1  UNL1        0.1754
      8 C          59.7779   88.5732    9.4241 C.ar    1  UNL1        0.0766
      9 C          60.5144   87.2666    9.4111 C.ar    1  UNL1        0.1379
     10 C          61.7830   87.1129   10.1966 C.ar    1  UNL1        0.0150
     11 C          62.3151   88.2658   10.9950 C.ar    1  UNL1        0.0388
     12 C          61.5785   89.5725   11.0080 C.ar    1  UNL1        0.1723
     13 C          58.7727   91.4305   11.4400 C.3     1  UNL1        0.2526
     14 O          59.5734   91.0328   10.2356 O.3     1  UNL1       -0.4683
     15 O          59.9823   86.1136    8.6126 O.3     1  UNL1       -0.4716
     16 C          59.0345   86.3619    7.4768 C.3     1  UNL1        0.2525
     17 O          62.1107   90.7254   11.8065 O.3     1  UNL1       -0.4684
     18 C          63.5867   90.9885   11.8519 C.3     1  UNL1        0.2526
     19 C          63.2163   84.9560   12.7280 C.ar    1  UNL1        0.0150
     20 C          63.7239   86.1921   13.4094 C.ar    1  UNL1        0.0388
     21 C          63.8270   86.2354   14.9052 C.ar    1  UNL1        0.1723
     22 C          63.4224   85.0424   15.7197 C.ar    1  UNL1        0.1754
     23 C          62.9147   83.8063   15.0382 C.ar    1  UNL1        0.0766
     24 C          62.8117   83.7631   13.5424 C.ar    1  UNL1        0.1379
     25 O          64.3346   87.4714   15.5866 O.3     1  UNL1       -0.4684
     26 C          64.3288   88.7842   14.8608 C.3     1  UNL1        0.2526
     27 O          63.5254   85.0856   17.2155 O.3     1  UNL1       -0.4683
     28 C          62.7932   86.1429   17.9875 C.3     1  UNL1        0.2526
     29 O          62.3040   82.5270   12.8610 O.3     1  UNL1       -0.4716
     30 C          62.7834   81.1762   13.3033 C.3     1  UNL1        0.2525
@<TRIPOS>BOND
     1    13    14    1
     2    14     7    1
     3     7     8   ar
     4     8     9   ar
     5     9    15    1
     6    15    16    1
     7     9    10   ar
     8     1    10    1
     9     1     2    1
    10     2     3    1
    11     2     4    1
    12     4     5    1
    13     4     6    1
    14     6    19    1
    15    19    20   ar
    16    20    21   ar
    17    21    25    1
    18    25    26    1
    19    21    22   ar
    20    22    27    1
    21    27    28    1
    22    22    23   ar
    23    23    24   ar
    24    24    29    1
    25    29    30    1
    26    10    11   ar
    27    11    12   ar
    28    12    17    1
    29    17    18    1
    30    12     7   ar
    31     6     1    1
    32    24    19   ar
@<TRIPOS>MOLECULE
*****
 30 32 0 0 0
SMALL
GASTEIGER

@<TRIPOS>ATOM
      1 C          61.7166   87.5805   11.1059 C.3     1  UNL1        0.0295
      2 C          60.5960   88.0185   10.2100 C.3     1  UNL1        0.0048
      3 C          59.7130   87.3384    9.2061 C.3     1  UNL1        0.0004
      4 C          60.7243   89.4181   10.7339 C.3     1  UNL1        0.0048
      5 C          60.0227   90.7175   10.4709 C.3     1  UNL1        0.0004
      6 C          61.8449   88.9802   11.6298 C.3     1  UNL1        0.0295
      7 C          63.8216   83.6822   11.8949 C.ar    1  UNL1        0.1754
      8 C          63.4701   84.0739   10.4903 C.ar    1  UNL1        0.0766
      9 C          62.7685   85.3733   10.2273 C.ar    1  UNL1        0.1379
     10 C          62.4183   86.2810   11.3689 C.ar    1  UNL1        0.0150
     11 C          62.7697   85.8893   12.7735 C.ar    1  UNL1        0.0388
     12 C          63.4714   84.5899   13.0365 C.ar    1  UNL1        0.1723
     13 C          63.7716   81.2332   12.7608 C.3     1  UNL1        0.2526
     14 O          64.5232   82.3827   12.1579 O.3     1  UNL1       -0.4683
     15 O          62.4170   85.7650    8.8226 O.3     1  UNL1       -0.4716
     16 C          62.7910   84.8698    7.6785 C.3     1  UNL1        0.2525
     17 O          63.8228   84.1982   14.4412 O.3     1  UNL1       -0.4684
     18 C          62.7545   83.7064   15.3723 C.3     1  UNL1        0.2526
     19 C          62.7280   89.6602   12.6337 C.ar    1  UNL1        0.0150
     20 C          62.6293   89.2984   14.0861 C.ar    1  UNL1        0.0388
     21 C          63.5124   89.9785   15.0900 C.ar    1  UNL1        0.1723
     22 C          64.4941   91.0202   14.6414 C.ar    1  UNL1        0.1754
     23 C          64.5926   91.3819   13.1891 C.ar    1  UNL1        0.0766
     24 C          63.7096   90.7019   12.1852 C.ar    1  UNL1        0.1379
     25 O          63.4138   89.6167   16.5424 O.3     1  UNL1       -0.4684
     26 C          63.0530   88.2172   16.9439 C.3     1  UNL1        0.2526
     27 O          65.3771   91.7002   15.6453 O.3     1  UNL1       -0.4683
     28 C          66.3825   92.7173   15.1927 C.3     1  UNL1        0.2526
     29 O          63.8081   91.0636   10.7328 O.3     1  UNL1       -0.4716
     30 C          64.6146   92.2556   10.3098 C.3     1  UNL1        0.2525
@<TRIPOS>BOND
     1    13    14    1
     2    14     7    1
     3     7     8   ar
     4     8     9   ar
     5     9    15    1
     6    15    16    1
     7     9    10   ar
     8     1    10    1
     9     1     2    1
    10     2     3    1
    11     2     4    1
    12     4     5    1
    13     4     6    1
    14     6    19    1
    15    19    20   ar
    16    20    21   ar
    17    21    25    1
    18    25    26    1
    19    21    22   ar
    20    22    27    1
    21    27    28    1
    22    22    23   ar
    23    23    24   ar
    24    24    29    1
    25    29    30    1
    26    10    11   ar
    27    11    12   ar
    28    12    17    1
    29    17    18    1
    30    12     7   ar
    31     6     1    1
    32    24    19   ar
@<TRIPOS>MOLECULE
*****
 30 32 0 0 0
SMALL
GASTEIGER

@<TRIPOS>ATOM
      1 C          63.4428   87.2416   13.2015 C.3     1  UNL1        0.0295
      2 C          64.1515   88.4012   13.8365 C.3     1  UNL1        0.0048
      3 C          65.0587   88.5714   15.0189 C.3     1  UNL1        0.0004
      4 C          63.5771   89.3201   12.7994 C.3     1  UNL1        0.0048
      5 C          63.6721   90.7899   12.5150 C.3     1  UNL1        0.0004
      6 C          62.8684   88.1606   12.1643 C.3     1  UNL1        0.0295
      7 C          63.1579   82.8324   14.0546 C.ar    1  UNL1        0.1754
      8 C          63.1657   83.8164   15.1867 C.ar    1  UNL1        0.0766
      9 C          63.2606   85.2861   14.9023 C.ar    1  UNL1        0.1379
     10 C          63.3478   85.7719   13.4859 C.ar    1  UNL1        0.0150
     11 C          63.3401   84.7879   12.3538 C.ar    1  UNL1        0.0388
     12 C          63.2451   83.3182   12.6381 C.ar    1  UNL1        0.1723
     13 C          61.8049   80.6149   14.0101 C.3     1  UNL1        0.2526
     14 O          63.0629   81.3627   14.3389 O.3     1  UNL1       -0.4683
     15 O          63.2684   86.2701   16.0345 O.3     1  UNL1       -0.4716
     16 C          62.4723   85.9923   17.2751 C.3     1  UNL1        0.2525
     17 O          63.2374   82.3342   11.5059 O.3     1  UNL1       -0.4684
     18 C          64.1771   82.5129   10.3505 C.3     1  UNL1        0.2526
     19 C          61.9612   87.9905   10.9820 C.ar    1  UNL1        0.0150
     20 C          62.2838   86.9713    9.9296 C.ar    1  UNL1        0.0388
     21 C          61.3766   86.8011    8.7473 C.ar    1  UNL1        0.1723
     22 C          60.1468   87.6502    8.6172 C.ar    1  UNL1        0.1754
     23 C          59.8243   88.6693    9.6695 C.ar    1  UNL1        0.0766
     24 C          60.7315   88.8394   10.8518 C.ar    1  UNL1        0.1379
     25 O          61.6991   85.7820    7.6950 O.3     1  UNL1       -0.4684
     26 C          62.8977   84.8941    7.8532 C.3     1  UNL1        0.2526
     27 O          59.2396   87.4800    7.4348 O.3     1  UNL1       -0.4683
     28 C          58.8399   88.6731    6.6184 C.3     1  UNL1        0.2526
     29 O          60.4090   89.8586   11.9041 O.3     1  UNL1       -0.4716
     30 C          59.2071   90.7426   11.7487 C.3     1  UNL1        0.2525
@<TRIPOS>BOND
     1    13    14    1
     2    14     7    1
     3     7     8   ar
     4     8     9   ar
     5     9    15    1
     6    15    16    1
     7     9    10   ar
     8     1    10    1
     9     1     2    1
    10     2     3    1
    11     2     4    1
    12     4     5    1
    13     4     6    1
    14     6    19    1
    15    19    20   ar
    16    20    21   ar
    17    21    25    1
    18    25    26    1
    19    21    22   ar
    20    22    27    1
    21    27    28    1
    22    22    23   ar
    23    23    24   ar
    24    24    29    1
    25    29    30    1
    26    10    11   ar
    27    11    12   ar
    28    12    17    1
    29    17    18    1
    30    12     7   ar
    31     6     1    1
    32    24    19   ar
@<TRIPOS>MOLECULE
*****
 30 32 0 0 0
SMALL
GASTEIGER

@<TRIPOS>ATOM
      1 C          63.2455   86.4864   12.8052 C.3     1  UNL1        0.0295
      2 C          63.6040   85.1367   13.3527 C.3     1  UNL1        0.0048
      3 C          64.4464   84.6437   14.4918 C.3     1  UNL1        0.0004
      4 C          62.7711   84.4842   12.2894 C.3     1  UNL1        0.0048
      5 C          62.4357   83.0684   11.9247 C.3     1  UNL1        0.0004
      6 C          62.4126   85.8338   11.7418 C.3     1  UNL1        0.0295
      7 C          64.2517   90.7338   13.8992 C.ar    1  UNL1        0.1754
      8 C          64.2574   89.6664   14.9530 C.ar    1  UNL1        0.0766
      9 C          63.9220   88.2506   14.5883 C.ar    1  UNL1        0.1379
     10 C          63.5809   87.9022   13.1698 C.ar    1  UNL1        0.0150
     11 C          63.5752   88.9696   12.1160 C.ar    1  UNL1        0.0388
     12 C          63.9106   90.3854   12.4807 C.ar    1  UNL1        0.1723
     13 C          66.0060   92.6292   14.1820 C.3     1  UNL1        0.2526
     14 O          64.5872   92.1496   14.2639 O.3     1  UNL1       -0.4683
     15 O          63.9277   87.1832   15.6423 O.3     1  UNL1       -0.4716
     16 C          63.1184   87.3596   16.8928 C.3     1  UNL1        0.2525
     17 O          63.9049   91.4528   11.4268 O.3     1  UNL1       -0.4684
     18 C          63.1060   91.2631   10.1715 C.3     1  UNL1        0.2526
     19 C          61.5702   86.3268   10.6028 C.ar    1  UNL1        0.0150
     20 C          61.6625   85.6642    9.2602 C.ar    1  UNL1        0.0388
     21 C          60.8201   86.1572    8.1211 C.ar    1  UNL1        0.1723
     22 C          59.8855   87.3127    8.3247 C.ar    1  UNL1        0.1754
     23 C          59.7933   87.9752    9.6673 C.ar    1  UNL1        0.0766
     24 C          60.6357   87.4822   10.8064 C.ar    1  UNL1        0.1379
     25 O          60.9123   85.4947    6.7786 O.3     1  UNL1       -0.4684
     26 C          62.0771   84.6050    6.4596 C.3     1  UNL1        0.2526
     27 O          59.0431   87.8057    7.1857 O.3     1  UNL1       -0.4683
     28 C          59.1597   89.2293    6.7279 C.3     1  UNL1        0.2526
     29 O          60.5435   88.1447   12.1489 O.3     1  UNL1       -0.4716
     30 C          59.8842   89.4857   12.2799 C.3     1  UNL1        0.2525
@<TRIPOS>BOND
     1    13    14    1
     2    14     7    1
     3     7     8   ar
     4     8     9   ar
     5     9    15    1
     6    15    16    1
     7     9    10   ar
     8     1    10    1
     9     1     2    1
    10     2     3    1
    11     2     4    1
    12     4     5    1
    13     4     6    1
    14     6    19    1
    15    19    20   ar
    16    20    21   ar
    17    21    25    1
    18    25    26    1
    19    21    22   ar
    20    22    27    1
    21    27    28    1
    22    22    23   ar
    23    23    24   ar
    24    24    29    1
    25    29    30    1
    26    10    11   ar
    27    11    12   ar
    28    12    17    1
    29    17    18    1
    30    12     7   ar
    31     6     1    1
    32    24    19   ar
@<TRIPOS>MOLECULE
*****
 30 32 0 0 0
SMALL
GASTEIGER

@<TRIPOS>ATOM
      1 C          62.8666   87.7754   12.3021 C.3     1  UNL1        0.0295
      2 C          63.5240   88.9306   12.9974 C.3     1  UNL1        0.0048
      3 C          63.5504   90.4163   12.7924 C.3     1  UNL1        0.0004
      4 C          64.1441   87.9846   13.9826 C.3     1  UNL1        0.0048
      5 C          65.0475   88.1325   15.1708 C.3     1  UNL1        0.0004
      6 C          63.4867   86.8294   13.2873 C.3     1  UNL1        0.0295
      7 C          60.1564   87.3317    8.7373 C.ar    1  UNL1        0.1754
      8 C          59.7918   88.2767    9.8436 C.ar    1  UNL1        0.0766
      9 C          60.6952   88.4246   11.0318 C.ar    1  UNL1        0.1379
     10 C          61.9632   87.6275   11.1138 C.ar    1  UNL1        0.0150
     11 C          62.3277   86.6825   10.0075 C.ar    1  UNL1        0.0388
     12 C          61.4243   86.5345    8.8193 C.ar    1  UNL1        0.1723
     13 C          58.8699   88.3896    6.7434 C.3     1  UNL1        0.2526
     14 O          59.2530   87.1838    7.5490 O.3     1  UNL1       -0.4683
     15 O          60.3305   89.3697   12.1382 O.3     1  UNL1       -0.4716
     16 C          59.3528   90.4788   11.8854 C.3     1  UNL1        0.2525
     17 O          61.7890   85.5894    7.7129 O.3     1  UNL1       -0.4684
     18 C          63.0533   84.7869    7.7984 C.3     1  UNL1        0.2526
     19 C          63.4604   85.3437   13.4923 C.ar    1  UNL1        0.0150
     20 C          64.0197   84.4315   12.4410 C.ar    1  UNL1        0.0388
     21 C          63.9933   82.9458   12.6459 C.ar    1  UNL1        0.1723
     22 C          63.4076   82.3723   13.9022 C.ar    1  UNL1        0.1754
     23 C          62.8484   83.2845   14.9535 C.ar    1  UNL1        0.0766
     24 C          62.8748   84.7702   14.7485 C.ar    1  UNL1        0.1379
     25 O          64.5525   82.0337   11.5947 O.3     1  UNL1       -0.4684
     26 C          63.8182   81.8410   10.3010 C.3     1  UNL1        0.2526
     27 O          63.3813   80.8866   14.1072 O.3     1  UNL1       -0.4683
     28 C          62.3435   80.0525   13.4165 C.3     1  UNL1        0.2526
     29 O          62.3155   85.6824   15.7997 O.3     1  UNL1       -0.4716
     30 C          63.0437   85.8657   17.0983 C.3     1  UNL1        0.2525
@<TRIPOS>BOND
     1    13    14    1
     2    14     7    1
     3     7     8   ar
     4     8     9   ar
     5     9    15    1
     6    15    16    1
     7     9    10   ar
     8     1    10    1
     9     1     2    1
    10     2     3    1
    11     2     4    1
    12     4     5    1
    13     4     6    1
    14     6    19    1
    15    19    20   ar
    16    20    21   ar
    17    21    25    1
    18    25    26    1
    19    21    22   ar
    20    22    27    1
    21    27    28    1
    22    22    23   ar
    23    23    24   ar
    24    24    29    1
    25    29    30    1
    26    10    11   ar
    27    11    12   ar
    28    12    17    1
    29    17    18    1
    30    12     7   ar
    31     6     1    1
    32    24    19   ar
@<TRIPOS>MOLECULE
*****
 30 32 0 0 0
SMALL
GASTEIGER

@<TRIPOS>ATOM
      1 C          62.3969   85.7974   11.7362 C.3     1  UNL1        0.0295
      2 C          62.7588   84.4371   12.2546 C.3     1  UNL1        0.0048
      3 C          62.4282   83.0286   11.8586 C.3     1  UNL1        0.0004
      4 C          63.5883   85.0688   13.3330 C.3     1  UNL1        0.0048
      5 C          64.4307   84.5536   14.4621 C.3     1  UNL1        0.0004
      6 C          63.2264   86.4291   12.8147 C.3     1  UNL1        0.0295
      7 C          59.8697   87.3430    8.3488 C.ar    1  UNL1        0.1754
      8 C          59.7931   87.9925    9.6987 C.ar    1  UNL1        0.0766
      9 C          60.6355   87.4773   10.8278 C.ar    1  UNL1        0.1379
     10 C          61.5545   86.3126   10.6071 C.ar    1  UNL1        0.0150
     11 C          61.6311   85.6631    9.2572 C.ar    1  UNL1        0.0388
     12 C          60.7887   86.1783    8.1281 C.ar    1  UNL1        0.1723
     13 C          59.2210   89.2584    6.7177 C.3     1  UNL1        0.2526
     14 O          59.0273   87.8582    7.2197 O.3     1  UNL1       -0.4683
     15 O          60.5589   88.1269   12.1777 O.3     1  UNL1       -0.4716
     16 C          59.8893   89.4603   12.3315 C.3     1  UNL1        0.2525
     17 O          60.8654   85.5287    6.7781 O.3     1  UNL1       -0.4684
     18 C          62.0113   84.6190    6.4476 C.3     1  UNL1        0.2526
     19 C          63.5570   87.8376   13.2107 C.ar    1  UNL1        0.0150
     20 C          63.5681   88.9244   12.1768 C.ar    1  UNL1        0.0388
     21 C          63.8987   90.3329   12.5728 C.ar    1  UNL1        0.1723
     22 C          64.2183   90.6546   14.0027 C.ar    1  UNL1        0.1754
     23 C          64.2072   89.5678   15.0365 C.ar    1  UNL1        0.0766
     24 C          63.8766   88.1593   14.6405 C.ar    1  UNL1        0.1379
     25 O          63.9098   91.4197   11.5390 O.3     1  UNL1       -0.4684
     26 C          63.1549   91.2413   10.2551 C.3     1  UNL1        0.2526
     27 O          64.5489   92.0631   14.3987 O.3     1  UNL1       -0.4683
     28 C          65.7835   92.3461   15.2022 C.3     1  UNL1        0.2526
     29 O          63.8655   87.0725   15.6742 O.3     1  UNL1       -0.4716
     30 C          63.0443   87.2303   16.9196 C.3     1  UNL1        0.2525
@<TRIPOS>BOND
     1    13    14    1
     2    14     7    1
     3     7     8   ar
     4     8     9   ar
     5     9    15    1
     6    15    16    1
     7     9    10   ar
     8     1    10    1
     9     1     2    1
    10     2     3    1
    11     2     4    1
    12     4     5    1
    13     4     6    1
    14     6    19    1
    15    19    20   ar
    16    20    21   ar
    17    21    25    1
    18    25    26    1
    19    21    22   ar
    20    22    27    1
    21    27    28    1
    22    22    23   ar
    23    23    24   ar
    24    24    29    1
    25    29    30    1
    26    10    11   ar
    27    11    12   ar
    28    12    17    1
    29    17    18    1
    30    12     7   ar
    31     6     1    1
    32    24    19   ar
@<TRIPOS>MOLECULE
*****
 30 32 0 0 0
SMALL
GASTEIGER

@<TRIPOS>ATOM
      1 C          63.4942   86.4211   13.2201 C.3     1  UNL1        0.0295
      2 C          64.0356   85.0429   13.4601 C.3     1  UNL1        0.0048
      3 C          64.9568   84.4263   14.4707 C.3     1  UNL1        0.0004
      4 C          63.2744   84.5369   12.2708 C.3     1  UNL1        0.0048
      5 C          63.1190   83.2045   11.5995 C.3     1  UNL1        0.0004
      6 C          62.7329   85.9150   12.0308 C.3     1  UNL1        0.0295
      7 C          63.9604   90.4182   15.2341 C.ar    1  UNL1        0.1754
      8 C          63.7736   89.1798   16.0595 C.ar    1  UNL1        0.0766
      9 C          63.6182   87.8474   15.3881 C.ar    1  UNL1        0.1379
     10 C          63.6496   87.7535   13.8914 C.ar    1  UNL1        0.0150
     11 C          63.8364   88.9919   13.0661 C.ar    1  UNL1        0.0388
     12 C          63.9918   90.3243   13.7374 C.ar    1  UNL1        0.1723
     13 C          65.4840   92.3247   16.1250 C.3     1  UNL1        0.2526
     14 O          64.1158   91.7506   15.9054 O.3     1  UNL1       -0.4683
     15 O          63.4314   86.6089   16.2136 O.3     1  UNL1       -0.4716
     16 C          62.6541   86.6718   17.4949 C.3     1  UNL1        0.2525
     17 O          64.1785   91.5628   12.9119 O.3     1  UNL1       -0.4684
     18 C          64.0255   91.5006   11.4210 C.3     1  UNL1        0.2526
     19 C          61.8118   86.5316   11.0202 C.ar    1  UNL1        0.0150
     20 C          60.8343   87.5881   11.4426 C.ar    1  UNL1        0.0388
     21 C          59.9132   88.2047   10.4320 C.ar    1  UNL1        0.1723
     22 C          59.9696   87.7649    8.9990 C.ar    1  UNL1        0.1754
     23 C          60.9470   86.7084    8.5767 C.ar    1  UNL1        0.0766
     24 C          61.8682   86.0918    9.5873 C.ar    1  UNL1        0.1379
     25 O          58.9357   89.2612   10.8544 O.3     1  UNL1       -0.4684
     26 C          59.4300   90.5410   11.4608 C.3     1  UNL1        0.2526
     27 O          59.0484   88.3815    7.9884 O.3     1  UNL1       -0.4683
     28 C          59.5899   89.3305    6.9608 C.3     1  UNL1        0.2526
     29 O          62.8457   85.0354    9.1650 O.3     1  UNL1       -0.4716
     30 C          63.0412   84.7336    7.7086 C.3     1  UNL1        0.2525
@<TRIPOS>BOND
     1    13    14    1
     2    14     7    1
     3     7     8   ar
     4     8     9   ar
     5     9    15    1
     6    15    16    1
     7     9    10   ar
     8     1    10    1
     9     1     2    1
    10     2     3    1
    11     2     4    1
    12     4     5    1
    13     4     6    1
    14     6    19    1
    15    19    20   ar
    16    20    21   ar
    17    21    25    1
    18    25    26    1
    19    21    22   ar
    20    22    27    1
    21    27    28    1
    22    22    23   ar
    23    23    24   ar
    24    24    29    1
    25    29    30    1
    26    10    11   ar
    27    11    12   ar
    28    12    17    1
    29    17    18    1
    30    12     7   ar
    31     6     1    1
    32    24    19   ar
