@<TRIPOS>MOLECULE
*****
 35 38 0 0 0
SMALL
GASTEIGER

@<TRIPOS>ATOM
      1 C          61.1398   89.1450   10.5834 C.ar    1  UNL1        0.1391
      2 C          61.5284   90.0529    9.4544 C.ar    1  UNL1        0.0369
      3 C          62.6679   91.0136    9.6227 C.ar    1  UNL1        0.0031
      4 C          63.4189   91.0665   10.9201 C.ar    1  UNL1       -0.0001
      5 C          64.5585   92.0273   11.0884 C.ar    1  UNL1       -0.0024
      6 C          65.3095   92.0802   12.3858 C.ar    1  UNL1       -0.0004
      7 C          64.9209   91.1722   13.5149 C.ar    1  UNL1       -0.0024
      8 C          63.7813   90.2115   13.3465 C.ar    1  UNL1       -0.0002
      9 C          63.0304   90.1586   12.0492 C.ar    1  UNL1        0.0030
     10 C          61.8908   89.1979   11.8808 C.ar    1  UNL1        0.0369
     11 O          60.0002   88.1842   10.4151 O.3     1  UNL1       -0.4706
     12 C          60.1836   86.9385    9.6000 C.3     1  UNL1        0.2320
     13 C          63.5691   84.1222   10.5256 C.ar    1  UNL1        0.1394
     14 C          63.2873   84.5151    9.1057 C.ar    1  UNL1        0.0367
     15 C          62.1588   85.4539    8.7971 C.ar    1  UNL1        0.0024
     16 C          61.3122   85.9997    9.9085 C.ar    1  UNL1        0.0214
     17 C          61.5940   85.6068   11.3284 C.ar    1  UNL1        0.0024
     18 C          62.7225   84.6681   11.6370 C.ar    1  UNL1        0.0367
     19 O          64.6977   83.1834   10.8341 O.3     1  UNL1       -0.4638
     20 C          64.7016   82.4127   12.1209 C.3     1  UNL1        0.3141
     21 C          63.5293   81.5493   12.4815 C.2     1  UNL1        0.3621
     22 O          62.8731   80.6997   11.4339 O.2     1  UNL1       -0.2459
     23 C          61.5665   81.2412   14.1556 C.3     1  UNL1        0.2557
     24 O          63.0131   81.5354   13.8899 O.3     1  UNL1       -0.4418
     25 C          66.4491   93.0409   12.5542 C.3     1  UNL1        0.1240
     26 N          67.2979   92.9885   13.7898 N.ar    1  UNL1       -0.3045
     27 C          67.1751   93.8896   14.9826 C.ar    1  UNL1        0.0983
     28 C          68.2198   93.4839   15.9796 C.ar    1  UNL1        0.1193
     29 N          68.9883   92.3321   15.4029 N.ar    1  UNL1       -0.2223
     30 C          68.4185   92.0259   14.0495 C.ar    1  UNL1        0.1788
     31 C          66.7398   94.0540   11.4868 C.3     1  UNL1        0.0827
     32 C          66.2098   95.4514   11.6148 C.3     1  UNL1        0.0197
     33 N          67.5606   93.6697   10.2916 N.3     1  UNL1       -0.2696
     34 C          67.8127   94.6693    9.2021 C.3     1  UNL1        0.0897
     35 C          68.1293   92.2856   10.1859 C.3     1  UNL1        0.0897
@<TRIPOS>BOND
     1    23    24    1
     2    24    21    1
     3    21    22    2
     4    21    20    1
     5    20    19    1
     6    19    13    1
     7    13    14   ar
     8    14    15   ar
     9    15    16   ar
    10    16    12    1
    11    12    11    1
    12    11     1    1
    13     1     2   ar
    14     2     3   ar
    15     3     4   ar
    16     4     5   ar
    17     5     6   ar
    18     6    25    1
    19    25    31    1
    20    31    32    1
    21    31    33    1
    22    33    34    1
    23    33    35    1
    24    25    26    1
    25    26    27   ar
    26    27    28   ar
    27    28    29   ar
    28    29    30   ar
    29     6     7   ar
    30     7     8   ar
    31     8     9   ar
    32     9    10   ar
    33    16    17   ar
    34    17    18   ar
    35    18    13   ar
    36    10     1   ar
    37     9     4   ar
    38    30    26   ar
@<TRIPOS>MOLECULE
*****
 35 38 0 0 0
SMALL
GASTEIGER

@<TRIPOS>ATOM
      1 C          61.3325   88.9117   10.4352 C.ar    1  UNL1        0.1391
      2 C          61.6145   89.9606    9.4007 C.ar    1  UNL1        0.0369
      3 C          62.6591   91.0059    9.6581 C.ar    1  UNL1        0.0031
      4 C          63.4216   91.0022   10.9498 C.ar    1  UNL1       -0.0001
      5 C          64.4663   92.0475   11.2071 C.ar    1  UNL1       -0.0024
      6 C          65.2288   92.0438   12.4988 C.ar    1  UNL1       -0.0004
      7 C          64.9466   90.9947   13.5333 C.ar    1  UNL1       -0.0024
      8 C          63.9021   89.9495   13.2759 C.ar    1  UNL1       -0.0002
      9 C          63.1396   89.9532   11.9842 C.ar    1  UNL1        0.0030
     10 C          62.0950   88.9080   11.7269 C.ar    1  UNL1        0.0369
     11 O          60.2878   87.8664   10.1779 O.3     1  UNL1       -0.4706
     12 C          60.6573   86.5940    9.4747 C.3     1  UNL1        0.2320
     13 C          63.5882   83.7491   11.3632 C.ar    1  UNL1        0.1394
     14 C          63.5458   83.9015    9.8716 C.ar    1  UNL1        0.0367
     15 C          62.5688   84.8498    9.2421 C.ar    1  UNL1        0.0024
     16 C          61.6343   85.6456   10.1042 C.ar    1  UNL1        0.0214
     17 C          61.6768   85.4932   11.5959 C.ar    1  UNL1        0.0024
     18 C          62.6538   84.5449   12.2253 C.ar    1  UNL1        0.0367
     19 O          64.5653   82.8008   11.9927 O.3     1  UNL1       -0.4638
     20 C          64.0965   81.8130   13.0196 C.3     1  UNL1        0.3141
     21 C          63.4718   82.2964   14.2947 C.2     1  UNL1        0.3621
     22 O          64.3034   83.0257   15.3079 O.2     1  UNL1       -0.2459
     23 C          61.3043   80.9345   13.8504 C.3     1  UNL1        0.2557
     24 O          62.0154   82.0505   14.5567 O.3     1  UNL1       -0.4418
     25 C          66.2734   93.0890   12.7561 C.3     1  UNL1        0.1240
     26 N          66.5314   94.1584   11.7364 N.ar    1  UNL1       -0.3045
     27 C          66.1692   95.6081   11.8681 C.ar    1  UNL1        0.0983
     28 C          66.6110   96.3116   10.6191 C.ar    1  UNL1        0.1193
     29 N          67.2462   95.2967    9.7155 N.ar    1  UNL1       -0.2223
     30 C          67.1970   93.9660   10.4061 C.ar    1  UNL1        0.1788
     31 C          67.0599   93.0649   14.0332 C.3     1  UNL1        0.0827
     32 C          66.4553   93.6013   15.2967 C.3     1  UNL1        0.0197
     33 N          68.4512   92.5043   14.0466 N.3     1  UNL1       -0.2696
     34 C          69.3600   92.7806   15.2075 C.3     1  UNL1        0.0897
     35 C          68.9336   91.6673   12.8991 C.3     1  UNL1        0.0897
@<TRIPOS>BOND
     1    23    24    1
     2    24    21    1
     3    21    22    2
     4    21    20    1
     5    20    19    1
     6    19    13    1
     7    13    14   ar
     8    14    15   ar
     9    15    16   ar
    10    16    12    1
    11    12    11    1
    12    11     1    1
    13     1     2   ar
    14     2     3   ar
    15     3     4   ar
    16     4     5   ar
    17     5     6   ar
    18     6    25    1
    19    25    31    1
    20    31    32    1
    21    31    33    1
    22    33    34    1
    23    33    35    1
    24    25    26    1
    25    26    27   ar
    26    27    28   ar
    27    28    29   ar
    28    29    30   ar
    29     6     7   ar
    30     7     8   ar
    31     8     9   ar
    32     9    10   ar
    33    16    17   ar
    34    17    18   ar
    35    18    13   ar
    36    10     1   ar
    37     9     4   ar
    38    30    26   ar
@<TRIPOS>MOLECULE
*****
 35 38 0 0 0
SMALL
GASTEIGER

@<TRIPOS>ATOM
      1 C          64.1564   90.3225   14.6960 C.ar    1  UNL1        0.1391
      2 C          63.4164   90.4223   13.3951 C.ar    1  UNL1        0.0369
      3 C          63.0840   89.1793   12.6242 C.ar    1  UNL1        0.0031
      4 C          63.4915   87.8365   13.1541 C.ar    1  UNL1       -0.0001
      5 C          63.1590   86.5935   12.3831 C.ar    1  UNL1       -0.0024
      6 C          63.5666   85.2507   12.9131 C.ar    1  UNL1       -0.0004
      7 C          64.3066   85.1510   14.2141 C.ar    1  UNL1       -0.0024
      8 C          64.6390   86.3940   14.9850 C.ar    1  UNL1       -0.0002
      9 C          64.2315   87.7367   14.4551 C.ar    1  UNL1        0.0030
     10 C          64.5639   88.9797   15.2260 C.ar    1  UNL1        0.0369
     11 O          64.4889   91.5656   15.4670 O.3     1  UNL1       -0.4706
     12 C          65.7575   92.3114   15.1767 C.3     1  UNL1        0.2320
     13 C          67.4392   92.3514   11.0029 C.ar    1  UNL1        0.1394
     14 C          66.0465   92.8482   11.2552 C.ar    1  UNL1        0.0367
     15 C          65.4860   92.8349   12.6464 C.ar    1  UNL1        0.0024
     16 C          66.3181   92.3247   13.7854 C.ar    1  UNL1        0.0214
     17 C          67.7107   91.8279   13.5331 C.ar    1  UNL1        0.0024
     18 C          68.2713   91.8412   12.1419 C.ar    1  UNL1        0.0367
     19 O          67.9998   92.3647    9.6116 O.3     1  UNL1       -0.4638
     20 C          68.5272   93.6417    9.0277 C.3     1  UNL1        0.3141
     21 C          67.6559   94.8619    8.9827 C.2     1  UNL1        0.3621
     22 O          66.8405   95.1564    7.7586 O.2     1  UNL1       -0.2459
     23 C          66.2941   96.4004   10.5728 C.3     1  UNL1        0.2557
     24 O          67.5999   95.7875   10.1617 O.3     1  UNL1       -0.4418
     25 C          63.2341   84.0077   12.1422 C.3     1  UNL1        0.1240
     26 N          62.7446   82.7866   12.8628 N.ar    1  UNL1       -0.3045
     27 C          62.7349   81.3878   12.3213 C.ar    1  UNL1        0.0983
     28 C          62.1631   80.4866   13.3753 C.ar    1  UNL1        0.1193
     29 N          61.8194   81.3284   14.5682 N.ar    1  UNL1       -0.2223
     30 C          62.1788   82.7499   14.2515 C.ar    1  UNL1        0.1788
     31 C          63.3912   83.9857   10.6505 C.3     1  UNL1        0.0827
     32 C          64.3340   83.0107   10.0100 C.3     1  UNL1        0.0197
     33 N          62.6055   84.9388    9.7995 N.3     1  UNL1       -0.2696
     34 C          61.3395   85.5463   10.3269 C.3     1  UNL1        0.0897
     35 C          63.0858   85.2845    8.4211 C.3     1  UNL1        0.0897
@<TRIPOS>BOND
     1    23    24    1
     2    24    21    1
     3    21    22    2
     4    21    20    1
     5    20    19    1
     6    19    13    1
     7    13    14   ar
     8    14    15   ar
     9    15    16   ar
    10    16    12    1
    11    12    11    1
    12    11     1    1
    13     1     2   ar
    14     2     3   ar
    15     3     4   ar
    16     4     5   ar
    17     5     6   ar
    18     6    25    1
    19    25    31    1
    20    31    32    1
    21    31    33    1
    22    33    34    1
    23    33    35    1
    24    25    26    1
    25    26    27   ar
    26    27    28   ar
    27    28    29   ar
    28    29    30   ar
    29     6     7   ar
    30     7     8   ar
    31     8     9   ar
    32     9    10   ar
    33    16    17   ar
    34    17    18   ar
    35    18    13   ar
    36    10     1   ar
    37     9     4   ar
    38    30    26   ar
@<TRIPOS>MOLECULE
*****
 35 38 0 0 0
SMALL
GASTEIGER

@<TRIPOS>ATOM
      1 C          60.4561   87.3364    8.2154 C.ar    1  UNL1        0.1391
      2 C          59.9488   87.8428    9.5330 C.ar    1  UNL1        0.0369
      3 C          60.4533   87.2425   10.8117 C.ar    1  UNL1        0.0031
      4 C          61.4651   86.1358   10.7728 C.ar    1  UNL1       -0.0001
      5 C          61.9695   85.5355   12.0516 C.ar    1  UNL1       -0.0024
      6 C          62.9813   84.4289   12.0127 C.ar    1  UNL1       -0.0004
      7 C          63.4887   83.9225   10.6950 C.ar    1  UNL1       -0.0024
      8 C          62.9842   84.5228    9.4163 C.ar    1  UNL1       -0.0002
      9 C          61.9724   85.6294    9.4552 C.ar    1  UNL1        0.0030
     10 C          61.4680   86.2297    8.1765 C.ar    1  UNL1        0.0369
     11 O          59.9517   87.9367    6.9366 O.3     1  UNL1       -0.4706
     12 C          59.0374   89.1252    6.9754 C.3     1  UNL1        0.2320
     13 C          59.4897   92.4119    3.9352 C.ar    1  UNL1        0.1394
     14 C          58.1366   92.0916    4.4978 C.ar    1  UNL1        0.0367
     15 C          57.9858   90.9961    5.5112 C.ar    1  UNL1        0.0024
     16 C          59.1882   90.2208    5.9620 C.ar    1  UNL1        0.0214
     17 C          60.5413   90.5410    5.3993 C.ar    1  UNL1        0.0024
     18 C          60.6920   91.6366    4.3859 C.ar    1  UNL1        0.0367
     19 O          59.6404   93.5075    2.9217 O.3     1  UNL1       -0.4638
     20 C          59.9045   93.1687    1.4846 C.3     1  UNL1        0.3141
     21 C          61.3113   93.1507    0.9646 C.2     1  UNL1        0.3621
     22 O          62.4645   93.2635    1.9172 O.2     1  UNL1       -0.2459
     23 C          60.4421   93.2160   -1.4829 C.3     1  UNL1        0.2557
     24 O          61.5651   93.0198   -0.5080 O.3     1  UNL1       -0.4418
     25 C          63.4858   83.8286   13.2914 C.3     1  UNL1        0.1240
     26 N          63.2387   82.3792   13.5883 N.ar    1  UNL1       -0.3045
     27 C          61.9133   81.6796   13.5245 C.ar    1  UNL1        0.0983
     28 C          62.1290   80.2429   13.8979 C.ar    1  UNL1        0.1193
     29 N          63.5877   80.0545   14.1925 N.ar    1  UNL1       -0.2223
     30 C          64.2734   81.3748   14.0012 C.ar    1  UNL1        0.1788
     31 C          64.2375   84.6777   14.2733 C.3     1  UNL1        0.0827
     32 C          65.7340   84.7543   14.2073 C.3     1  UNL1        0.0197
     33 N          63.4925   85.4503   15.3213 N.3     1  UNL1       -0.2696
     34 C          62.3458   84.8136   16.0490 C.3     1  UNL1        0.0897
     35 C          63.8943   86.8596   15.6415 C.3     1  UNL1        0.0897
@<TRIPOS>BOND
     1    23    24    1
     2    24    21    1
     3    21    22    2
     4    21    20    1
     5    20    19    1
     6    19    13    1
     7    13    14   ar
     8    14    15   ar
     9    15    16   ar
    10    16    12    1
    11    12    11    1
    12    11     1    1
    13     1     2   ar
    14     2     3   ar
    15     3     4   ar
    16     4     5   ar
    17     5     6   ar
    18     6    25    1
    19    25    31    1
    20    31    32    1
    21    31    33    1
    22    33    34    1
    23    33    35    1
    24    25    26    1
    25    26    27   ar
    26    27    28   ar
    27    28    29   ar
    28    29    30   ar
    29     6     7   ar
    30     7     8   ar
    31     8     9   ar
    32     9    10   ar
    33    16    17   ar
    34    17    18   ar
    35    18    13   ar
    36    10     1   ar
    37     9     4   ar
    38    30    26   ar
@<TRIPOS>MOLECULE
*****
 35 38 0 0 0
SMALL
GASTEIGER

@<TRIPOS>ATOM
      1 C          60.4217   87.3678    8.1721 C.ar    1  UNL1        0.1391
      2 C          59.9190   87.8913    9.4848 C.ar    1  UNL1        0.0369
      3 C          60.3888   87.2731   10.7682 C.ar    1  UNL1        0.0031
      4 C          61.3613   86.1314   10.7388 C.ar    1  UNL1       -0.0001
      5 C          61.8311   85.5132   12.0223 C.ar    1  UNL1       -0.0024
      6 C          62.8035   84.3715   11.9930 C.ar    1  UNL1       -0.0004
      7 C          63.3062   83.8480   10.6802 C.ar    1  UNL1       -0.0024
      8 C          62.8364   84.4662    9.3968 C.ar    1  UNL1       -0.0002
      9 C          61.8639   85.6079    9.4261 C.ar    1  UNL1        0.0030
     10 C          61.3941   86.2261    8.1428 C.ar    1  UNL1        0.0369
     11 O          59.9519   87.9860    6.8886 O.3     1  UNL1       -0.4706
     12 C          59.0499   89.1841    6.9193 C.3     1  UNL1        0.2320
     13 C          59.5592   92.4623    3.8790 C.ar    1  UNL1        0.1394
     14 C          58.1959   92.1441    4.4175 C.ar    1  UNL1        0.0367
     15 C          58.0261   91.0513    5.4309 C.ar    1  UNL1        0.0024
     16 C          59.2196   90.2769    5.9058 C.ar    1  UNL1        0.0214
     17 C          60.5830   90.5951    5.3673 C.ar    1  UNL1        0.0024
     18 C          60.7528   91.6879    4.3539 C.ar    1  UNL1        0.0367
     19 O          59.7290   93.5551    2.8656 O.3     1  UNL1       -0.4638
     20 C          59.7053   93.2304    1.4013 C.3     1  UNL1        0.3141
     21 C          60.9910   93.1208    0.6366 C.2     1  UNL1        0.3621
     22 O          61.0380   92.3403   -0.6435 O.2     1  UNL1       -0.2459
     23 C          63.5283   93.6350    0.4176 C.3     1  UNL1        0.2557
     24 O          62.2297   93.7918    1.1518 O.3     1  UNL1       -0.4418
     25 C          63.2733   83.7533   13.2763 C.3     1  UNL1        0.1240
     26 N          63.3810   84.5901   14.5166 N.ar    1  UNL1       -0.3045
     27 C          62.4628   84.5327   15.7013 C.ar    1  UNL1        0.0983
     28 C          62.9401   85.5383   16.7068 C.ar    1  UNL1        0.1193
     29 N          64.1533   86.2172   16.1435 N.ar    1  UNL1       -0.2223
     30 C          64.4257   85.6312   14.7899 C.ar    1  UNL1        0.1788
     31 C          63.6355   82.2983   13.3195 C.3     1  UNL1        0.0827
     32 C          65.0747   81.8861   13.4122 C.3     1  UNL1        0.0197
     33 N          62.5584   81.2556   13.2699 N.3     1  UNL1       -0.2696
     34 C          61.3834   81.3462   14.1979 C.3     1  UNL1        0.0897
     35 C          62.6562   80.1221   12.2922 C.3     1  UNL1        0.0897
@<TRIPOS>BOND
     1    23    24    1
     2    24    21    1
     3    21    22    2
     4    21    20    1
     5    20    19    1
     6    19    13    1
     7    13    14   ar
     8    14    15   ar
     9    15    16   ar
    10    16    12    1
    11    12    11    1
    12    11     1    1
    13     1     2   ar
    14     2     3   ar
    15     3     4   ar
    16     4     5   ar
    17     5     6   ar
    18     6    25    1
    19    25    31    1
    20    31    32    1
    21    31    33    1
    22    33    34    1
    23    33    35    1
    24    25    26    1
    25    26    27   ar
    26    27    28   ar
    27    28    29   ar
    28    29    30   ar
    29     6     7   ar
    30     7     8   ar
    31     8     9   ar
    32     9    10   ar
    33    16    17   ar
    34    17    18   ar
    35    18    13   ar
    36    10     1   ar
    37     9     4   ar
    38    30    26   ar
@<TRIPOS>MOLECULE
*****
 35 38 0 0 0
SMALL
GASTEIGER

@<TRIPOS>ATOM
      1 C          63.2327   89.7627   15.0785 C.ar    1  UNL1        0.1391
      2 C          62.7109   89.6284   13.6786 C.ar    1  UNL1        0.0369
      3 C          63.2638   90.4945   12.5859 C.ar    1  UNL1        0.0031
      4 C          64.3384   91.4950   12.8931 C.ar    1  UNL1       -0.0001
      5 C          64.8912   92.3612   11.8003 C.ar    1  UNL1       -0.0024
      6 C          65.9658   93.3616   12.1074 C.ar    1  UNL1       -0.0004
      7 C          66.4876   93.4959   13.5074 C.ar    1  UNL1       -0.0024
      8 C          65.9347   92.6297   14.6001 C.ar    1  UNL1       -0.0002
      9 C          64.8601   91.6293   14.2930 C.ar    1  UNL1        0.0030
     10 C          64.3073   90.7631   15.3857 C.ar    1  UNL1        0.0369
     11 O          62.6798   88.8965   16.1713 O.3     1  UNL1       -0.4706
     12 C          63.5039   87.7733   16.7275 C.3     1  UNL1        0.2320
     13 C          63.6237   83.8062   14.6067 C.ar    1  UNL1        0.1394
     14 C          64.6789   84.8362   14.3312 C.ar    1  UNL1        0.0367
     15 C          64.6389   86.1585   15.0381 C.ar    1  UNL1        0.0024
     16 C          63.5439   86.4509   16.0205 C.ar    1  UNL1        0.0214
     17 C          62.4887   85.4210   16.2961 C.ar    1  UNL1        0.0024
     18 C          62.5287   84.0987   15.5892 C.ar    1  UNL1        0.0367
     19 O          63.6637   82.4838   13.8998 O.3     1  UNL1       -0.4638
     20 C          64.3969   82.3512   12.5980 C.3     1  UNL1        0.3141
     21 C          63.6545   82.4879   11.3018 C.2     1  UNL1        0.3621
     22 O          63.1478   81.2657   10.5951 O.2     1  UNL1       -0.2459
     23 C          62.4458   84.7870   11.3600 C.3     1  UNL1        0.2557
     24 O          63.4187   83.8470   10.7122 O.3     1  UNL1       -0.4418
     25 C          66.5187   94.2278   11.0147 C.3     1  UNL1        0.1240
     26 N          67.3771   93.6255    9.9421 N.ar    1  UNL1       -0.3045
     27 C          68.0377   92.2798    9.9933 C.ar    1  UNL1        0.0983
     28 C          68.7944   92.0859    8.7128 C.ar    1  UNL1        0.1193
     29 N          68.6016   93.3117    7.8702 N.ar    1  UNL1       -0.2223
     30 C          67.7256   94.2633    8.6299 C.ar    1  UNL1        0.1788
     31 C          66.2132   95.6962   10.9946 C.3     1  UNL1        0.0827
     32 C          66.3987   96.5180   12.2356 C.3     1  UNL1        0.0197
     33 N          65.7221   96.3429    9.7333 N.3     1  UNL1       -0.2696
     34 C          64.2493   96.4865    9.4884 C.3     1  UNL1        0.0897
     35 C          66.7040   96.8459    8.7170 C.3     1  UNL1        0.0897
@<TRIPOS>BOND
     1    23    24    1
     2    24    21    1
     3    21    22    2
     4    21    20    1
     5    20    19    1
     6    19    13    1
     7    13    14   ar
     8    14    15   ar
     9    15    16   ar
    10    16    12    1
    11    12    11    1
    12    11     1    1
    13     1     2   ar
    14     2     3   ar
    15     3     4   ar
    16     4     5   ar
    17     5     6   ar
    18     6    25    1
    19    25    31    1
    20    31    32    1
    21    31    33    1
    22    33    34    1
    23    33    35    1
    24    25    26    1
    25    26    27   ar
    26    27    28   ar
    27    28    29   ar
    28    29    30   ar
    29     6     7   ar
    30     7     8   ar
    31     8     9   ar
    32     9    10   ar
    33    16    17   ar
    34    17    18   ar
    35    18    13   ar
    36    10     1   ar
    37     9     4   ar
    38    30    26   ar
@<TRIPOS>MOLECULE
*****
 35 38 0 0 0
SMALL
GASTEIGER

@<TRIPOS>ATOM
      1 C          62.2045   87.8210   12.0333 C.ar    1  UNL1        0.1391
      2 C          63.0566   87.7299   13.2644 C.ar    1  UNL1        0.0369
      3 C          64.0639   88.8012   13.5603 C.ar    1  UNL1        0.0031
      4 C          64.2191   89.9636   12.6250 C.ar    1  UNL1       -0.0001
      5 C          65.2265   91.0350   12.9210 C.ar    1  UNL1       -0.0024
      6 C          65.3818   92.1974   11.9857 C.ar    1  UNL1       -0.0004
      7 C          64.5297   92.2885   10.7545 C.ar    1  UNL1       -0.0024
      8 C          63.5224   91.2172   10.4587 C.ar    1  UNL1       -0.0002
      9 C          63.3671   90.0547   11.3939 C.ar    1  UNL1        0.0030
     10 C          62.3598   88.9834   11.0980 C.ar    1  UNL1        0.0369
     11 O          61.1971   86.7497   11.7373 O.3     1  UNL1       -0.4706
     12 C          61.0680   86.2055   10.3456 C.3     1  UNL1        0.2320
     13 C          59.2497   88.7369    7.0997 C.ar    1  UNL1        0.1394
     14 C          59.3263   87.2479    6.9353 C.ar    1  UNL1        0.0367
     15 C          59.9324   86.4041    8.0172 C.ar    1  UNL1        0.0024
     16 C          60.4618   87.0493    9.2635 C.ar    1  UNL1        0.0214
     17 C          60.3853   88.5383    9.4279 C.ar    1  UNL1        0.0024
     18 C          59.7792   89.3821    8.3460 C.ar    1  UNL1        0.0367
     19 O          58.6436   89.5807    6.0176 O.3     1  UNL1       -0.4638
     20 C          59.3627   90.8025    5.5279 C.3     1  UNL1        0.3141
     21 C          58.5887   91.9373    4.9253 C.2     1  UNL1        0.3621
     22 O          57.0913   91.9535    5.0125 O.2     1  UNL1       -0.2459
     23 C          60.1373   92.7753    3.0149 C.3     1  UNL1        0.2557
     24 O          59.3120   93.0559    4.2356 O.3     1  UNL1       -0.4418
     25 C          66.3891   93.2687   12.2816 C.3     1  UNL1        0.1240
     26 N          67.1881   93.2172   13.5501 N.ar    1  UNL1       -0.3045
     27 C          66.8753   93.9525   14.8195 C.ar    1  UNL1        0.0983
     28 C          67.9341   93.6112   15.8258 C.ar    1  UNL1        0.1193
     29 N          68.9012   92.6649   15.1783 N.ar    1  UNL1       -0.2223
     30 C          68.4401   92.4215   13.7718 C.ar    1  UNL1        0.1788
     31 C          66.5975   94.3915   11.3090 C.3     1  UNL1        0.0827
     32 C          65.9923   95.7376   11.5766 C.3     1  UNL1        0.0197
     33 N          67.4111   94.1681   10.0688 N.3     1  UNL1       -0.2696
     34 C          68.0710   92.8418    9.8334 C.3     1  UNL1        0.0897
     35 C          67.5649   95.2712    9.0639 C.3     1  UNL1        0.0897
@<TRIPOS>BOND
     1    23    24    1
     2    24    21    1
     3    21    22    2
     4    21    20    1
     5    20    19    1
     6    19    13    1
     7    13    14   ar
     8    14    15   ar
     9    15    16   ar
    10    16    12    1
    11    12    11    1
    12    11     1    1
    13     1     2   ar
    14     2     3   ar
    15     3     4   ar
    16     4     5   ar
    17     5     6   ar
    18     6    25    1
    19    25    31    1
    20    31    32    1
    21    31    33    1
    22    33    34    1
    23    33    35    1
    24    25    26    1
    25    26    27   ar
    26    27    28   ar
    27    28    29   ar
    28    29    30   ar
    29     6     7   ar
    30     7     8   ar
    31     8     9   ar
    32     9    10   ar
    33    16    17   ar
    34    17    18   ar
    35    18    13   ar
    36    10     1   ar
    37     9     4   ar
    38    30    26   ar
@<TRIPOS>MOLECULE
*****
 35 38 0 0 0
SMALL
GASTEIGER

@<TRIPOS>ATOM
      1 C          60.2679   89.0123   10.0771 C.ar    1  UNL1        0.1391
      2 C          60.2828   88.6974   11.5436 C.ar    1  UNL1        0.0369
      3 C          61.3628   89.2586   12.4202 C.ar    1  UNL1        0.0031
      4 C          62.4279   90.1347   11.8304 C.ar    1  UNL1       -0.0001
      5 C          63.5079   90.6960   12.7072 C.ar    1  UNL1       -0.0024
      6 C          64.5730   91.5722   12.1174 C.ar    1  UNL1       -0.0004
      7 C          64.5581   91.8871   10.6508 C.ar    1  UNL1       -0.0024
      8 C          63.4781   91.3259    9.7742 C.ar    1  UNL1       -0.0002
      9 C          62.4130   90.4497   10.3640 C.ar    1  UNL1        0.0030
     10 C          61.3330   89.8885    9.4873 C.ar    1  UNL1        0.0369
     11 O          59.1878   88.4511    9.2004 O.3     1  UNL1       -0.4706
     12 C          59.4083   87.1576    8.4736 C.3     1  UNL1        0.2320
     13 C          63.0421   84.6612    9.3753 C.ar    1  UNL1        0.1394
     14 C          62.6588   84.9412    7.9524 C.ar    1  UNL1        0.0367
     15 C          61.4475   85.7733    7.6518 C.ar    1  UNL1        0.0024
     16 C          60.6196   86.3254    8.7742 C.ar    1  UNL1        0.0214
     17 C          61.0030   86.0454   10.1971 C.ar    1  UNL1        0.0024
     18 C          62.2142   85.2133   10.4976 C.ar    1  UNL1        0.0367
     19 O          64.2535   83.8290    9.6759 O.3     1  UNL1       -0.4638
     20 C          64.0989   82.4891   10.3320 C.3     1  UNL1        0.3141
     21 C          63.8841   82.4000   11.8139 C.2     1  UNL1        0.3621
     22 O          62.9856   81.3402   12.3791 O.2     1  UNL1       -0.2459
     23 C          63.7606   84.1849   13.6978 C.3     1  UNL1        0.2557
     24 O          64.5678   83.3708   12.7305 O.3     1  UNL1       -0.4418
     25 C          65.6530   92.1334   12.9940 C.3     1  UNL1        0.1240
     26 N          65.4559   92.1967   14.4797 N.ar    1  UNL1       -0.3045
     27 C          64.3588   91.5269   15.2528 C.ar    1  UNL1        0.0983
     28 C          64.5461   91.8571   16.7040 C.ar    1  UNL1        0.1193
     29 N          65.7589   92.7310   16.8277 N.ar    1  UNL1       -0.2223
     30 C          66.3212   92.9408   15.4530 C.ar    1  UNL1        0.1788
     31 C          66.9303   92.6314   12.3850 C.3     1  UNL1        0.0827
     32 C          68.2205   91.9175   12.6600 C.3     1  UNL1        0.0197
     33 N          66.9172   93.8432   11.5012 N.3     1  UNL1       -0.2696
     34 C          66.2890   95.1169   11.9839 C.3     1  UNL1        0.0897
     35 C          67.5323   93.7813   10.1344 C.3     1  UNL1        0.0897
@<TRIPOS>BOND
     1    23    24    1
     2    24    21    1
     3    21    22    2
     4    21    20    1
     5    20    19    1
     6    19    13    1
     7    13    14   ar
     8    14    15   ar
     9    15    16   ar
    10    16    12    1
    11    12    11    1
    12    11     1    1
    13     1     2   ar
    14     2     3   ar
    15     3     4   ar
    16     4     5   ar
    17     5     6   ar
    18     6    25    1
    19    25    31    1
    20    31    32    1
    21    31    33    1
    22    33    34    1
    23    33    35    1
    24    25    26    1
    25    26    27   ar
    26    27    28   ar
    27    28    29   ar
    28    29    30   ar
    29     6     7   ar
    30     7     8   ar
    31     8     9   ar
    32     9    10   ar
    33    16    17   ar
    34    17    18   ar
    35    18    13   ar
    36    10     1   ar
    37     9     4   ar
    38    30    26   ar
@<TRIPOS>MOLECULE
*****
 35 38 0 0 0
SMALL
GASTEIGER

@<TRIPOS>ATOM
      1 C          64.2683   90.6782   14.9586 C.ar    1  UNL1        0.1391
      2 C          63.5185   90.9710   13.6929 C.ar    1  UNL1        0.0369
      3 C          63.1269   89.8498   12.7767 C.ar    1  UNL1        0.0031
      4 C          63.4852   88.4358   13.1261 C.ar    1  UNL1       -0.0001
      5 C          63.0936   87.3145   12.2098 C.ar    1  UNL1       -0.0024
      6 C          63.4519   85.9005   12.5592 C.ar    1  UNL1       -0.0004
      7 C          64.2018   85.6077   13.8249 C.ar    1  UNL1       -0.0024
      8 C          64.5933   86.7289   14.7412 C.ar    1  UNL1       -0.0002
      9 C          64.2350   88.1429   14.3917 C.ar    1  UNL1        0.0030
     10 C          64.6266   89.2641   15.3080 C.ar    1  UNL1        0.0369
     11 O          64.6599   91.7994   15.8749 O.3     1  UNL1       -0.4706
     12 C          65.8317   92.6717   15.5346 C.3     1  UNL1        0.2320
     13 C          67.7858   92.3393   11.4946 C.ar    1  UNL1        0.1394
     14 C          68.4649   91.7709   12.7053 C.ar    1  UNL1        0.0367
     15 C          67.8136   91.8817   14.0519 C.ar    1  UNL1        0.0024
     16 C          66.4831   92.5609   14.1879 C.ar    1  UNL1        0.0214
     17 C          65.8040   93.1292   12.9772 C.ar    1  UNL1        0.0024
     18 C          66.4553   93.0184   11.6306 C.ar    1  UNL1        0.0367
     19 O          68.4372   92.2285   10.1480 O.3     1  UNL1       -0.4638
     20 C          68.8611   93.4670    9.4157 C.3     1  UNL1        0.3141
     21 C          67.8689   94.5615    9.1563 C.2     1  UNL1        0.3621
     22 O          67.1361   94.6152    7.8486 O.2     1  UNL1       -0.2459
     23 C          66.3873   96.4678   10.1162 C.3     1  UNL1        0.2557
     24 O          67.6093   95.6025   10.2048 O.3     1  UNL1       -0.4418
     25 C          63.0603   84.7793   11.6429 C.3     1  UNL1        0.1240
     26 N          62.4519   85.0813   10.3055 N.ar    1  UNL1       -0.3045
     27 C          63.0569   84.7647    8.9699 C.ar    1  UNL1        0.0983
     28 C          62.1105   85.2407    7.9079 C.ar    1  UNL1        0.1193
     29 N          60.9207   85.8514    8.5871 N.ar    1  UNL1       -0.2223
     30 C          61.1317   85.7529   10.0689 C.ar    1  UNL1        0.1788
     31 C          63.2772   83.3560   12.0641 C.3     1  UNL1        0.0827
     32 C          64.3580   82.5396   11.4197 C.3     1  UNL1        0.0197
     33 N          62.4132   82.7492   13.1296 N.3     1  UNL1       -0.2696
     34 C          61.8873   81.3542   12.9645 C.3     1  UNL1        0.0897
     35 C          62.0752   83.5375   14.3602 C.3     1  UNL1        0.0897
@<TRIPOS>BOND
     1    23    24    1
     2    24    21    1
     3    21    22    2
     4    21    20    1
     5    20    19    1
     6    19    13    1
     7    13    14   ar
     8    14    15   ar
     9    15    16   ar
    10    16    12    1
    11    12    11    1
    12    11     1    1
    13     1     2   ar
    14     2     3   ar
    15     3     4   ar
    16     4     5   ar
    17     5     6   ar
    18     6    25    1
    19    25    31    1
    20    31    32    1
    21    31    33    1
    22    33    34    1
    23    33    35    1
    24    25    26    1
    25    26    27   ar
    26    27    28   ar
    27    28    29   ar
    28    29    30   ar
    29     6     7   ar
    30     7     8   ar
    31     8     9   ar
    32     9    10   ar
    33    16    17   ar
    34    17    18   ar
    35    18    13   ar
    36    10     1   ar
    37     9     4   ar
    38    30    26   ar
