@<TRIPOS>MOLECULE
*****
 23 26 0 0 0
SMALL
GASTEIGER

@<TRIPOS>ATOM
      1 C          63.2389   84.7269   12.7756 C.3     1  UNL1        0.0409
      2 C          63.3616   83.2491   13.0010 C.3     1  UNL1        0.0707
      3 N          64.0815   82.7323   14.2112 N.3     1  UNL1       -0.2974
      4 C          64.6788   83.6933   15.1959 C.3     1  UNL1        0.0689
      5 C          64.5561   85.1711   14.9705 C.3     1  UNL1        0.0212
      6 C          63.8362   85.6880   13.7604 C.3     1  UNL1        0.0234
      7 C          63.1162   86.2049   12.5502 C.3     1  UNL1        0.0078
      8 H          64.8443   82.1461   13.8720 H       1  UNL1        0.1232
      9 C          63.5622   84.2799   13.3220 C.ar    1  UNL1       -0.0218
     10 C          64.4178   83.6427   12.2675 C.ar    1  UNL1       -0.0034
     11 C          64.1439   82.2346   11.8291 C.ar    1  UNL1        0.0119
     12 C          63.0142   81.4637   12.4452 C.ar    1  UNL1        0.0682
     13 CL         62.7403   80.0555   12.0068 Cl      1  UNL1       -0.0814
     14 C          62.1586   82.1008   13.4997 C.ar    1  UNL1        0.0679
     15 CL         61.0290   81.3298   14.1158 Cl      1  UNL1       -0.0814
     16 C          62.4326   83.5089   13.9381 C.ar    1  UNL1        0.0080
     17 C          62.4784   84.4705   11.5084 C.3     1  UNL1        0.1286
     18 C          63.0428   85.2691    8.3950 C.3     1  UNL1        0.0518
     19 C          62.1134   85.9804    9.3331 C.ar    1  UNL1        0.0575
     20 C          61.2801   87.1837    9.0048 C.ar    1  UNL1        0.0368
     21 C          60.5057   87.5604   10.2329 C.ar    1  UNL1        0.1213
     22 N          60.8603   86.5899   11.3204 N.ar    1  UNL1       -0.1680
     23 N          61.8539   85.6134   10.7642 N.ar    1  UNL1       -0.2548
@<TRIPOS>BOND
     1    18    19    1
     2    19    20   ar
     3    20    21   ar
     4    21    22   ar
     5    22    23   ar
     6    23    17    1
     7    17     1    1
     8     1     2    1
     9     2     3    1
    10     3     4    1
    11     4     5    1
    12     5     6    1
    13     6     9    1
    14     9    10   ar
    15    10    11   ar
    16    11    12   ar
    17    12    13    1
    18    12    14   ar
    19    14    15    1
    20    14    16   ar
    21     6     7    1
    22    23    19   ar
    23     6     1    1
    24    16     9   ar
    25     7     1    1
    26     3     8    1
@<TRIPOS>MOLECULE
*****
 23 26 0 0 0
SMALL
GASTEIGER

@<TRIPOS>ATOM
      1 C          63.2941   83.1571   12.1480 C.3     1  UNL1        0.0409
      2 C          63.3722   83.4559   13.6158 C.3     1  UNL1        0.0707
      3 N          63.1581   82.3594   14.6167 N.3     1  UNL1       -0.2974
      4 C          62.8659   80.9642   14.1498 C.3     1  UNL1        0.0689
      5 C          62.7878   80.6654   12.6820 C.3     1  UNL1        0.0212
      6 C          63.0019   81.7619   11.6811 C.3     1  UNL1        0.0234
      7 C          63.2160   82.8584   10.6801 C.3     1  UNL1        0.0078
      8 H          62.3731   82.6444   15.2023 H       1  UNL1        0.1232
      9 C          63.2157   82.7399   12.7981 C.ar    1  UNL1       -0.0218
     10 C          62.0520   83.1993   13.6257 C.ar    1  UNL1       -0.0034
     11 C          62.2658   84.1773   14.7428 C.ar    1  UNL1        0.0119
     12 C          63.6432   84.6959   15.0323 C.ar    1  UNL1        0.0682
     13 CL         63.8570   85.6739   16.1494 Cl      1  UNL1       -0.0814
     14 C          64.8069   84.2365   14.2047 C.ar    1  UNL1        0.0679
     15 CL         66.1843   84.7551   14.4942 Cl      1  UNL1       -0.0814
     16 C          64.5931   83.2585   13.0876 C.ar    1  UNL1        0.0080
     17 C          63.5864   84.5956   11.8396 C.3     1  UNL1        0.1286
     18 C          63.2591   85.0841    8.6297 C.3     1  UNL1        0.0518
     19 C          62.3931   85.6726    9.7039 C.ar    1  UNL1        0.0575
     20 C          61.2247   86.5889    9.4912 C.ar    1  UNL1        0.0368
     21 C          60.6530   86.9306   10.8352 C.ar    1  UNL1        0.1213
     22 N          61.4681   86.2256   11.8786 N.ar    1  UNL1       -0.1680
     23 N          62.5436   85.4480   11.1793 N.ar    1  UNL1       -0.2548
@<TRIPOS>BOND
     1    18    19    1
     2    19    20   ar
     3    20    21   ar
     4    21    22   ar
     5    22    23   ar
     6    23    17    1
     7    17     1    1
     8     1     2    1
     9     2     3    1
    10     3     4    1
    11     4     5    1
    12     5     6    1
    13     6     9    1
    14     9    10   ar
    15    10    11   ar
    16    11    12   ar
    17    12    13    1
    18    12    14   ar
    19    14    15    1
    20    14    16   ar
    21     6     7    1
    22    23    19   ar
    23     6     1    1
    24    16     9   ar
    25     7     1    1
    26     3     8    1
@<TRIPOS>MOLECULE
*****
 23 26 0 0 0
SMALL
GASTEIGER

@<TRIPOS>ATOM
      1 C          63.1658   85.1990   12.9472 C.3     1  UNL1        0.0409
      2 C          63.2320   83.7430   13.3017 C.3     1  UNL1        0.0707
      3 N          64.1082   83.2848   14.4297 N.3     1  UNL1       -0.2974
      4 C          64.9182   84.2826   15.2032 C.3     1  UNL1        0.0689
      5 C          64.8520   85.7386   14.8487 C.3     1  UNL1        0.0212
      6 C          63.9758   86.1968   13.7207 C.3     1  UNL1        0.0234
      7 C          63.0996   86.6550   12.5927 C.3     1  UNL1        0.0078
      8 H          64.7667   82.6123   14.0366 H       1  UNL1        0.1232
      9 C          63.5464   84.7801   13.4788 C.ar    1  UNL1       -0.0218
     10 C          62.5301   84.1406   14.3779 C.ar    1  UNL1       -0.0034
     11 C          62.1006   82.7239   14.1360 C.ar    1  UNL1        0.0119
     12 C          62.6875   81.9467   12.9951 C.ar    1  UNL1        0.0682
     13 CL         62.2580   80.5299   12.7533 Cl      1  UNL1       -0.0814
     14 C          63.7038   82.5861   12.0962 C.ar    1  UNL1        0.0679
     15 CL         64.2906   81.8089   10.9553 Cl      1  UNL1       -0.0814
     16 C          64.1333   84.0029   12.3380 C.ar    1  UNL1        0.0080
     17 C          62.1923   84.8874   11.8495 C.3     1  UNL1        0.1286
     18 C          62.9663   85.3663    8.7156 C.3     1  UNL1        0.0518
     19 C          62.0302   86.2081    9.5311 C.ar    1  UNL1        0.0575
     20 C          61.2855   87.4178    9.0493 C.ar    1  UNL1        0.0368
     21 C          60.4695   87.9453   10.1921 C.ar    1  UNL1        0.1213
     22 N          60.7098   87.0617   11.3801 N.ar    1  UNL1       -0.1680
     23 N          61.6744   85.9880   10.9716 N.ar    1  UNL1       -0.2548
@<TRIPOS>BOND
     1    18    19    1
     2    19    20   ar
     3    20    21   ar
     4    21    22   ar
     5    22    23   ar
     6    23    17    1
     7    17     1    1
     8     1     2    1
     9     2     3    1
    10     3     4    1
    11     4     5    1
    12     5     6    1
    13     6     9    1
    14     9    10   ar
    15    10    11   ar
    16    11    12   ar
    17    12    13    1
    18    12    14   ar
    19    14    15    1
    20    14    16   ar
    21     6     7    1
    22    23    19   ar
    23     6     1    1
    24    16     9   ar
    25     7     1    1
    26     3     8    1
@<TRIPOS>MOLECULE
*****
 23 26 0 0 0
SMALL
GASTEIGER

@<TRIPOS>ATOM
      1 C          63.3192   82.9783   11.9878 C.3     1  UNL1        0.0409
      2 C          63.5530   83.3163   13.4304 C.3     1  UNL1        0.0707
      3 N          63.3647   82.2678   14.4864 N.3     1  UNL1       -0.2974
      4 C          62.9425   80.8813   14.0997 C.3     1  UNL1        0.0689
      5 C          62.7087   80.5433   12.6572 C.3     1  UNL1        0.0212
      6 C          62.8971   81.5919   11.6012 C.3     1  UNL1        0.0234
      7 C          63.0854   82.6404   10.5452 C.3     1  UNL1        0.0078
      8 H          62.6574   82.6221   15.1303 H       1  UNL1        0.1232
      9 C          63.2758   82.5874   12.6573 C.ar    1  UNL1       -0.0218
     10 C          64.7093   82.9974   12.8221 C.ar    1  UNL1       -0.0034
     11 C          65.0880   83.9930   13.8782 C.ar    1  UNL1        0.0119
     12 C          64.0332   84.5786   14.7696 C.ar    1  UNL1        0.0682
     13 CL         64.4120   85.5742   15.8257 Cl      1  UNL1       -0.0814
     14 C          62.5998   84.1687   14.6049 C.ar    1  UNL1        0.0679
     15 CL         61.5451   84.7543   15.4963 Cl      1  UNL1       -0.0814
     16 C          62.2210   83.1730   13.5487 C.ar    1  UNL1        0.0080
     17 C          63.6717   84.3842   11.6014 C.3     1  UNL1        0.1286
     18 C          63.2356   85.1010    8.4477 C.3     1  UNL1        0.0518
     19 C          62.4186   85.6239    9.5919 C.ar    1  UNL1        0.0575
     20 C          61.2578   86.5681    9.4873 C.ar    1  UNL1        0.0368
     21 C          60.7407   86.8221   10.8723 C.ar    1  UNL1        0.1213
     22 N          61.5820   86.0349   11.8328 N.ar    1  UNL1       -0.1680
     23 N          62.6191   85.2944   11.0414 N.ar    1  UNL1       -0.2548
@<TRIPOS>BOND
     1    18    19    1
     2    19    20   ar
     3    20    21   ar
     4    21    22   ar
     5    22    23   ar
     6    23    17    1
     7    17     1    1
     8     1     2    1
     9     2     3    1
    10     3     4    1
    11     4     5    1
    12     5     6    1
    13     6     9    1
    14     9    10   ar
    15    10    11   ar
    16    11    12   ar
    17    12    13    1
    18    12    14   ar
    19    14    15    1
    20    14    16   ar
    21     6     7    1
    22    23    19   ar
    23     6     1    1
    24    16     9   ar
    25     7     1    1
    26     3     8    1
@<TRIPOS>MOLECULE
*****
 23 26 0 0 0
SMALL
GASTEIGER

@<TRIPOS>ATOM
      1 C          62.1191   87.3433   11.2270 C.3     1  UNL1        0.0409
      2 C          61.2193   87.5787   10.0502 C.3     1  UNL1        0.0707
      3 N          61.1899   88.9231    9.3857 N.3     1  UNL1       -0.2974
      4 C          62.0603   90.0321    9.8979 C.3     1  UNL1        0.0689
      5 C          62.9602   89.7967   11.0747 C.3     1  UNL1        0.0212
      6 C          62.9896   88.4523   11.7392 C.3     1  UNL1        0.0234
      7 C          63.0190   87.1078   12.4038 C.3     1  UNL1        0.0078
      8 H          60.2272   89.2563    9.4378 H       1  UNL1        0.1232
      9 C          61.9675   87.9479   10.7641 C.ar    1  UNL1       -0.0218
     10 C          60.5223   88.3105   10.9376 C.ar    1  UNL1       -0.0034
     11 C          59.5002   87.8061    9.9624 C.ar    1  UNL1        0.0119
     12 C          59.9233   86.9392    8.8137 C.ar    1  UNL1        0.0682
     13 CL         58.9011   86.4348    7.8386 Cl      1  UNL1       -0.0814
     14 C          61.3684   86.5767    8.6402 C.ar    1  UNL1        0.0679
     15 CL         61.7914   85.7097    7.4915 Cl      1  UNL1       -0.0814
     16 C          62.3906   87.0810    9.6154 C.ar    1  UNL1        0.0080
     17 C          61.6336   85.9268   11.3149 C.3     1  UNL1        0.1286
     18 C          63.7164   83.7388   10.0803 C.3     1  UNL1        0.0518
     19 C          63.3720   83.9078   11.5305 C.ar    1  UNL1        0.0575
     20 C          63.9246   83.1006   12.6677 C.ar    1  UNL1        0.0368
     21 C          63.3087   83.6075   13.9380 C.ar    1  UNL1        0.1213
     22 N          62.3755   84.7279   13.5860 N.ar    1  UNL1       -0.1680
     23 N          62.4147   84.9135   12.0979 N.ar    1  UNL1       -0.2548
@<TRIPOS>BOND
     1    18    19    1
     2    19    20   ar
     3    20    21   ar
     4    21    22   ar
     5    22    23   ar
     6    23    17    1
     7    17     1    1
     8     1     2    1
     9     2     3    1
    10     3     4    1
    11     4     5    1
    12     5     6    1
    13     6     9    1
    14     9    10   ar
    15    10    11   ar
    16    11    12   ar
    17    12    13    1
    18    12    14   ar
    19    14    15    1
    20    14    16   ar
    21     6     7    1
    22    23    19   ar
    23     6     1    1
    24    16     9   ar
    25     7     1    1
    26     3     8    1
@<TRIPOS>MOLECULE
*****
 23 26 0 0 0
SMALL
GASTEIGER

@<TRIPOS>ATOM
      1 C          62.9004   84.4488   11.5180 C.3     1  UNL1        0.0409
      2 C          63.1195   84.0647   12.9513 C.3     1  UNL1        0.0707
      3 N          64.0505   82.9391   13.2922 N.3     1  UNL1       -0.2974
      4 C          64.7624   82.1976   12.1998 C.3     1  UNL1        0.0689
      5 C          64.5434   82.5817   10.7665 C.3     1  UNL1        0.0212
      6 C          63.6124   83.7073   10.4256 C.3     1  UNL1        0.0234
      7 C          62.6813   84.8329   10.0846 C.3     1  UNL1        0.0078
      8 H          63.5029   82.2499   13.8075 H       1  UNL1        0.1232
      9 C          63.3278   83.9136   11.8838 C.ar    1  UNL1       -0.0218
     10 C          62.3133   83.0547   12.5788 C.ar    1  UNL1       -0.0034
     11 C          62.0287   83.2610   14.0370 C.ar    1  UNL1        0.0119
     12 C          62.7587   84.3262   14.8003 C.ar    1  UNL1        0.0682
     13 CL         62.4741   84.5325   16.2586 Cl      1  UNL1       -0.0814
     14 C          63.7732   85.1851   14.1053 C.ar    1  UNL1        0.0679
     15 CL         64.5031   86.2503   14.8685 Cl      1  UNL1       -0.0814
     16 C          64.0578   84.9788   12.6470 C.ar    1  UNL1        0.0080
     17 C          61.9519   85.5267   11.9518 C.3     1  UNL1        0.1286
     18 C          63.1813   88.5402   12.1908 C.3     1  UNL1        0.0518
     19 C          62.2181   88.0612   11.1454 C.ar    1  UNL1        0.0575
     20 C          61.6509   88.8834   10.0263 C.ar    1  UNL1        0.0368
     21 C          60.7353   88.0064    9.2247 C.ar    1  UNL1        0.1213
     22 N          60.7365   86.6422    9.8484 N.ar    1  UNL1       -0.1680
     23 N          61.6530   86.6761   11.0355 N.ar    1  UNL1       -0.2548
@<TRIPOS>BOND
     1    18    19    1
     2    19    20   ar
     3    20    21   ar
     4    21    22   ar
     5    22    23   ar
     6    23    17    1
     7    17     1    1
     8     1     2    1
     9     2     3    1
    10     3     4    1
    11     4     5    1
    12     5     6    1
    13     6     9    1
    14     9    10   ar
    15    10    11   ar
    16    11    12   ar
    17    12    13    1
    18    12    14   ar
    19    14    15    1
    20    14    16   ar
    21     6     7    1
    22    23    19   ar
    23     6     1    1
    24    16     9   ar
    25     7     1    1
    26     3     8    1
@<TRIPOS>MOLECULE
*****
 23 26 0 0 0
SMALL
GASTEIGER

@<TRIPOS>ATOM
      1 C          62.9284   84.3840   11.2779 C.3     1  UNL1        0.0409
      2 C          63.1391   83.8697   12.6711 C.3     1  UNL1        0.0707
      3 N          64.1035   82.7478   12.9185 N.3     1  UNL1       -0.2974
      4 C          64.8571   82.1401   11.7727 C.3     1  UNL1        0.0689
      5 C          64.6463   82.6544   10.3795 C.3     1  UNL1        0.0212
      6 C          63.6819   83.7763   10.1321 C.3     1  UNL1        0.0234
      7 C          62.7176   84.8983    9.8846 C.3     1  UNL1        0.0078
      8 H          63.5725   81.9939   13.3546 H       1  UNL1        0.1232
      9 C          63.3686   83.8302   11.5980 C.ar    1  UNL1       -0.0218
     10 C          63.9360   84.9295   12.4463 C.ar    1  UNL1       -0.0034
     11 C          63.6226   84.9834   13.9122 C.ar    1  UNL1        0.0119
     12 C          62.7419   83.9380   14.5298 C.ar    1  UNL1        0.0682
     13 CL         62.4285   83.9920   15.9958 Cl      1  UNL1       -0.0814
     14 C          62.1745   82.8387   13.6816 C.ar    1  UNL1        0.0679
     15 CL         61.2938   81.7934   14.2992 Cl      1  UNL1       -0.0814
     16 C          62.4878   82.7848   12.2156 C.ar    1  UNL1        0.0080
     17 C          61.9365   85.3826   11.7966 C.3     1  UNL1        0.1286
     18 C          63.1097   88.4084   12.1392 C.3     1  UNL1        0.0518
     19 C          62.1032   87.9632   11.1200 C.ar    1  UNL1        0.0575
     20 C          61.4593   88.8306   10.0793 C.ar    1  UNL1        0.0368
     21 C          60.5221   87.9759    9.2787 C.ar    1  UNL1        0.1213
     22 N          60.5867   86.5801    9.8245 N.ar    1  UNL1       -0.1680
     23 N          61.5640   86.5723   10.9625 N.ar    1  UNL1       -0.2548
@<TRIPOS>BOND
     1    18    19    1
     2    19    20   ar
     3    20    21   ar
     4    21    22   ar
     5    22    23   ar
     6    23    17    1
     7    17     1    1
     8     1     2    1
     9     2     3    1
    10     3     4    1
    11     4     5    1
    12     5     6    1
    13     6     9    1
    14     9    10   ar
    15    10    11   ar
    16    11    12   ar
    17    12    13    1
    18    12    14   ar
    19    14    15    1
    20    14    16   ar
    21     6     7    1
    22    23    19   ar
    23     6     1    1
    24    16     9   ar
    25     7     1    1
    26     3     8    1
@<TRIPOS>MOLECULE
*****
 23 26 0 0 0
SMALL
GASTEIGER

@<TRIPOS>ATOM
      1 C          65.6552   92.6000   12.7051 C.3     1  UNL1        0.0409
      2 C          66.4557   92.2720   13.9305 C.3     1  UNL1        0.0707
      3 N          66.1409   91.0387   14.7240 N.3     1  UNL1       -0.2974
      4 C          65.0257   90.1333   14.2921 C.3     1  UNL1        0.0689
      5 C          64.2252   90.4613   13.0668 C.3     1  UNL1        0.0212
      6 C          64.5399   91.6947   12.2733 C.3     1  UNL1        0.0234
      7 C          64.8547   92.9281   11.4797 C.3     1  UNL1        0.0078
      8 H          65.9205   91.3462   15.6712 H       1  UNL1        0.1232
      9 C          65.6460   92.0280   13.2301 C.ar    1  UNL1       -0.0218
     10 C          65.3310   92.6862   14.5407 C.ar    1  UNL1       -0.0034
     11 C          66.4371   93.0195   15.4975 C.ar    1  UNL1        0.0119
     12 C          67.8581   92.6946   15.1438 C.ar    1  UNL1        0.0682
     13 CL         68.9642   93.0279   16.1007 Cl      1  UNL1       -0.0814
     14 C          68.1731   92.0364   13.8333 C.ar    1  UNL1        0.0679
     15 CL         69.5941   91.7115   13.4795 Cl      1  UNL1       -0.0814
     16 C          67.0670   91.7031   12.8764 C.ar    1  UNL1        0.0080
     17 C          66.4808   93.8348   12.4963 C.3     1  UNL1        0.1286
     18 C          65.8068   96.7362   11.1632 C.3     1  UNL1        0.0518
     19 C          66.5294   95.6049   10.4939 C.ar    1  UNL1        0.0575
     20 C          67.0691   95.6086    9.0944 C.ar    1  UNL1        0.0368
     21 C          67.7125   94.2772    8.8422 C.ar    1  UNL1        0.1213
     22 N          67.5704   93.4507   10.0858 N.ar    1  UNL1       -0.1680
     23 N          66.8392   94.2713   11.1067 N.ar    1  UNL1       -0.2548
@<TRIPOS>BOND
     1    18    19    1
     2    19    20   ar
     3    20    21   ar
     4    21    22   ar
     5    22    23   ar
     6    23    17    1
     7    17     1    1
     8     1     2    1
     9     2     3    1
    10     3     4    1
    11     4     5    1
    12     5     6    1
    13     6     9    1
    14     9    10   ar
    15    10    11   ar
    16    11    12   ar
    17    12    13    1
    18    12    14   ar
    19    14    15    1
    20    14    16   ar
    21     6     7    1
    22    23    19   ar
    23     6     1    1
    24    16     9   ar
    25     7     1    1
    26     3     8    1
@<TRIPOS>MOLECULE
*****
 23 26 0 0 0
SMALL
GASTEIGER

@<TRIPOS>ATOM
      1 C          63.6434   90.6499   12.9537 C.3     1  UNL1        0.0409
      2 C          63.9775   90.1361   14.3228 C.3     1  UNL1        0.0707
      3 N          65.2661   90.5341   14.9793 N.3     1  UNL1       -0.2974
      4 C          66.2206   91.4458   14.2668 C.3     1  UNL1        0.0689
      5 C          65.8865   91.9595   12.8978 C.3     1  UNL1        0.0212
      6 C          64.5979   91.5616   12.2412 C.3     1  UNL1        0.0234
      7 C          63.3093   91.1636   11.5846 C.3     1  UNL1        0.0078
      8 H          65.7743   89.6721   15.1771 H       1  UNL1        0.1232
      9 C          64.2398   90.7386   13.4430 C.ar    1  UNL1       -0.0218
     10 C          63.6239   91.3933   14.6439 C.ar    1  UNL1       -0.0034
     11 C          63.2657   90.5704   15.8457 C.ar    1  UNL1        0.0119
     12 C          63.5234   89.0927   15.8467 C.ar    1  UNL1        0.0682
     13 CL         63.1652   88.2697   17.0486 Cl      1  UNL1       -0.0814
     14 C          64.1393   88.4379   14.6459 C.ar    1  UNL1        0.0679
     15 CL         64.3970   86.9602   14.6469 Cl      1  UNL1       -0.0814
     16 C          64.4975   89.2609   13.4440 C.ar    1  UNL1        0.0080
     17 C          62.3484   89.8938   12.9860 C.3     1  UNL1        0.1286
     18 C          59.5005   90.6387   11.5774 C.3     1  UNL1        0.0518
     19 C          60.4931   89.6302   11.0799 C.ar    1  UNL1        0.0575
     20 C          60.3509   88.7870    9.8474 C.ar    1  UNL1        0.0368
     21 C          61.5721   87.9235    9.7332 C.ar    1  UNL1        0.1213
     22 N          62.4690   88.2329   10.8950 N.ar    1  UNL1       -0.1680
     23 N          61.8021   89.2878   11.7273 N.ar    1  UNL1       -0.2548
@<TRIPOS>BOND
     1    18    19    1
     2    19    20   ar
     3    20    21   ar
     4    21    22   ar
     5    22    23   ar
     6    23    17    1
     7    17     1    1
     8     1     2    1
     9     2     3    1
    10     3     4    1
    11     4     5    1
    12     5     6    1
    13     6     9    1
    14     9    10   ar
    15    10    11   ar
    16    11    12   ar
    17    12    13    1
    18    12    14   ar
    19    14    15    1
    20    14    16   ar
    21     6     7    1
    22    23    19   ar
    23     6     1    1
    24    16     9   ar
    25     7     1    1
    26     3     8    1
