@<TRIPOS>MOLECULE
*****
 61 66 0 0 0
SMALL
GASTEIGER

@<TRIPOS>ATOM
      1 N          61.2849   85.6731    8.2764 N.3     1  UNL1       -0.1862
      2 C          62.1474   84.5153    8.6832 C.3     1  UNL1        0.1775
      3 C          62.9050   84.5626    9.9770 C.2     1  UNL1        0.2452
      4 O          63.7676   83.4047   10.3838 O.2     1  UNL1       -0.2732
      5 N          62.8000   85.7676   10.8640 N.am    1  UNL1       -0.2541
      6 C          63.5576   85.8149   12.1578 C.3     1  UNL1        0.1577
      7 C          63.4526   87.0199   13.0448 C.2     1  UNL1        0.2445
      8 O          64.2101   87.0672   14.3386 O.2     1  UNL1       -0.2731
      9 N          62.5900   88.1778   12.6380 N.am    1  UNL1       -0.2705
     10 C          61.8324   88.1305   11.3442 C.3     1  UNL1        0.1359
     11 C          61.9375   86.9254   10.4572 C.3     1  UNL1        0.1908
     12 N          61.1799   86.8781    9.1634 N.am    1  UNL1       -0.1863
     13 C          60.3173   88.0360    8.7567 C.2     1  UNL1        0.3191
     14 O          60.2123   89.2410    9.6437 O.2     1  UNL1       -0.2512
     15 N          59.5598   87.9887    7.4629 N.am    1  UNL1       -0.2836
     16 H          59.6287   87.1978    6.8807 H       1  UNL1        0.1513
     17 C          58.6972   89.1465    7.0561 C.3     1  UNL1        0.1177
     18 C          59.1927   90.1292    6.0369 C.ar    1  UNL1       -0.0025
     19 C          58.2204   91.0094    5.3090 C.ar    1  UNL1       -0.0026
     20 C          58.7158   91.9921    4.2898 C.ar    1  UNL1       -0.0003
     21 C          60.1836   92.0947    3.9985 C.ar    1  UNL1       -0.0000
     22 C          61.1561   91.2145    4.7263 C.ar    1  UNL1       -0.0003
     23 C          60.6606   90.2318    5.7455 C.ar    1  UNL1       -0.0026
     24 C          62.4850   89.3828   13.5250 C.3     1  UNL1        0.1217
     25 C          63.6128   90.3700   13.5856 C.ar    1  UNL1        0.0135
     26 C          64.4868   90.4364   14.8029 C.ar    1  UNL1       -0.0012
     27 C          65.6145   91.4236   14.8635 C.ar    1  UNL1       -0.0002
     28 C          65.8682   92.3444   13.7069 C.ar    1  UNL1        0.0016
     29 C          64.9941   92.2780   12.4897 C.ar    1  UNL1        0.0214
     30 C          65.0020   93.0522   11.2050 C.ar    1  UNL1        0.0721
     31 C          63.8792   92.5435   10.3503 C.ar    1  UNL1        0.0805
     32 N          63.1774   91.4550   11.1068 N.ar    1  UNL1       -0.3241
     33 C          61.9942   90.6685   10.6257 C.3     1  UNL1        0.1305
     34 C          63.8664   91.2908   12.4290 C.ar    1  UNL1        0.0577
     35 C          65.9639   94.1436   10.8391 C.2     1  UNL1        0.2506
     36 O          65.7050   95.5522   11.2852 O.2     1  UNL1       -0.2699
     37 N          67.1847   93.8264   10.0273 N.am    1  UNL1       -0.2721
     38 C          67.4435   92.4177    9.5812 C.3     1  UNL1        0.1254
     39 C          68.8352   91.9886    9.2222 C.3     1  UNL1        0.1586
     40 O          69.2421   91.8919    7.7817 O.3     1  UNL1       -0.3802
     41 H          68.7377   91.1848    7.3499 H       1  UNL1        0.2105
     42 C          68.1466   94.9176    9.6614 C.3     1  UNL1        0.1108
     43 C          67.6348   96.2868    9.3248 C.3     1  UNL1        0.0904
     44 N          67.5247   96.7148    7.8914 N.3     1  UNL1       -0.2940
     45 H          68.3262   96.3162    7.4026 H       1  UNL1        0.1234
     46 C          66.3073   96.3545    7.0925 C.3     1  UNL1        0.1008
     47 C          64.9579   96.8555    7.5145 C.3     1  UNL1        0.1542
     48 O          64.4797   96.6306    8.9183 O.3     1  UNL1       -0.3805
     49 H          64.3544   95.6806    9.0689 H       1  UNL1        0.2105
     50 C          64.4201   84.6571   12.5646 C.3     1  UNL1        0.0556
     51 C          63.7909   83.4034   13.0960 C.ar    1  UNL1       -0.0198
     52 C          64.5202   82.0967   12.9936 C.ar    1  UNL1       -0.0011
     53 C          63.8911   80.8430   13.5251 C.ar    1  UNL1        0.0363
     54 C          62.5326   80.8960   14.1589 C.ar    1  UNL1        0.1337
     55 O          61.9035   79.6423   14.6903 O.3     1  UNL1       -0.5055
     56 C          61.8033   82.2028   14.2613 C.ar    1  UNL1        0.0363
     57 C          62.4324   83.4565   13.7298 C.ar    1  UNL1       -0.0011
     58 H          62.3590   78.8260   14.6264 H       1  UNL1        0.2922
     59 C          60.5273   85.6258    6.9826 C.3     1  UNL1        0.1188
     60 C          62.0824   84.3741    5.3199 C.2     1  UNL1       -0.0034
     61 C          60.7607   84.5015    6.0175 C.2     1  UNL1       -0.0071
@<TRIPOS>BOND
     1    60    61    2
     2    61    59    1
     3    59     1    1
     4     1     2    1
     5     2     3    1
     6     3     4    2
     7     3     5   am
     8     5     6    1
     9     6    50    1
    10    50    51    1
    11    51    52   ar
    12    52    53   ar
    13    53    54   ar
    14    54    55    1
    15    54    56   ar
    16    56    57   ar
    17     6     7    1
    18     7     8    2
    19     7     9   am
    20     9    24    1
    21    24    25    1
    22    25    26   ar
    23    26    27   ar
    24    27    28   ar
    25    28    29   ar
    26    29    30   ar
    27    30    35    1
    28    35    36    2
    29    35    37   am
    30    37    38    1
    31    38    39    1
    32    39    40    1
    33    37    42    1
    34    42    43    1
    35    43    44    1
    36    44    46    1
    37    46    47    1
    38    47    48    1
    39    30    31   ar
    40    31    32   ar
    41    32    33    1
    42    32    34   ar
    43     9    10    1
    44    11    10    1
    45    11    12    1
    46    12    13   am
    47    13    14    2
    48    13    15   am
    49    15    17    1
    50    17    18    1
    51    18    19   ar
    52    19    20   ar
    53    20    21   ar
    54    21    22   ar
    55    22    23   ar
    56    12     1    1
    57    23    18   ar
    58    11     5    1
    59    57    51   ar
    60    34    25   ar
    61    34    29   ar
    62    55    58    1
    63    40    41    1
    64    44    45    1
    65    48    49    1
    66    15    16    1
@<TRIPOS>MOLECULE
*****
 61 66 0 0 0
SMALL
GASTEIGER

@<TRIPOS>ATOM
      1 N          62.9037   84.1824    9.5000 N.3     1  UNL1       -0.1862
      2 C          62.2496   84.2502    8.1519 C.3     1  UNL1        0.1775
      3 C          61.4047   85.4346    7.7868 C.2     1  UNL1        0.2452
      4 O          60.7506   85.5023    6.4385 O.2     1  UNL1       -0.2732
      5 N          61.2140   86.5513    8.7698 N.am    1  UNL1       -0.2541
      6 C          60.3691   87.7358    8.4048 C.3     1  UNL1        0.1577
      7 C          60.1783   88.8525    9.3878 C.2     1  UNL1        0.2445
      8 O          59.3335   90.0370    9.0227 O.2     1  UNL1       -0.2731
      9 N          60.8325   88.7849   10.7360 N.am    1  UNL1       -0.2705
     10 C          61.6773   87.6004   11.1011 C.3     1  UNL1        0.1359
     11 C          61.8681   86.4836   10.1180 C.3     1  UNL1        0.1908
     12 N          62.7129   85.2992   10.4830 N.am    1  UNL1       -0.1863
     13 C          63.3670   85.2315   11.8313 C.2     1  UNL1        0.3191
     14 O          63.1763   86.3482   12.8143 O.2     1  UNL1       -0.2512
     15 N          64.2119   84.0470   12.1964 N.am    1  UNL1       -0.2836
     16 H          64.3371   83.3141   11.5511 H       1  UNL1        0.1513
     17 C          64.8660   83.9793   13.5445 C.3     1  UNL1        0.1177
     18 C          64.2385   84.6712   14.7182 C.ar    1  UNL1       -0.0025
     19 C          63.0801   84.0384   15.4305 C.ar    1  UNL1       -0.0026
     20 C          62.4526   84.7303   16.6042 C.ar    1  UNL1       -0.0003
     21 C          62.9836   86.0551   17.0655 C.ar    1  UNL1       -0.0000
     22 C          64.1421   86.6881   16.3532 C.ar    1  UNL1       -0.0003
     23 C          64.7695   85.9961   15.1795 C.ar    1  UNL1       -0.0026
     24 C          60.6417   89.9016   11.7191 C.3     1  UNL1        0.1217
     25 C          61.5704   90.0377   12.8892 C.ar    1  UNL1        0.0135
     26 C          61.1544   89.5341   14.2395 C.ar    1  UNL1       -0.0012
     27 C          62.0830   89.6701   15.4095 C.ar    1  UNL1       -0.0002
     28 C          63.4278   90.3097   15.2293 C.ar    1  UNL1        0.0016
     29 C          63.8438   90.8133   13.8790 C.ar    1  UNL1        0.0214
     30 C          65.0977   91.4830   13.4001 C.ar    1  UNL1        0.0721
     31 C          64.9439   91.7609   11.9341 C.ar    1  UNL1        0.0805
     32 N          63.5951   91.2629   11.5070 N.ar    1  UNL1       -0.3241
     33 C          63.0260   91.3375   10.1211 C.3     1  UNL1        0.1305
     34 C          62.9152   90.6773   12.7089 C.ar    1  UNL1        0.0577
     35 C          66.2951   91.8164   14.2399 C.2     1  UNL1        0.2506
     36 O          66.9817   90.7403   15.0278 O.2     1  UNL1       -0.2699
     37 N          66.8060   93.2258   14.2917 N.am    1  UNL1       -0.2721
     38 C          66.1193   94.3018   13.5038 C.3     1  UNL1        0.1254
     39 C          66.5142   94.5560   12.0792 C.3     1  UNL1        0.1586
     40 O          65.5989   95.3249   11.1731 O.3     1  UNL1       -0.3802
     41 H          64.7857   94.8166   11.0278 H       1  UNL1        0.2105
     42 C          68.0033   93.5592   15.1314 C.3     1  UNL1        0.1108
     43 C          69.2556   92.7424   15.0100 C.3     1  UNL1        0.0904
     44 N          69.8361   92.4564   13.6568 N.3     1  UNL1       -0.2940
     45 H          70.8014   92.1628   13.8065 H       1  UNL1        0.1234
     46 C          69.2022   91.4247   12.7715 C.3     1  UNL1        0.1008
     47 C          68.4612   91.8479   11.5379 C.3     1  UNL1        0.1542
     48 O          69.2039   92.4726   10.3942 O.3     1  UNL1       -0.3805
     49 H          69.5616   93.3307   10.6711 H       1  UNL1        0.2105
     50 C          59.7150   87.8035    7.0566 C.3     1  UNL1        0.0556
     51 C          59.5785   89.1221    6.3546 C.ar    1  UNL1       -0.0198
     52 C          60.7927   89.8051    5.7988 C.ar    1  UNL1       -0.0011
     53 C          60.6562   91.1237    5.0968 C.ar    1  UNL1        0.0363
     54 C          59.3053   91.7591    4.9506 C.ar    1  UNL1        0.1337
     55 O          59.1688   93.0777    4.2486 O.3     1  UNL1       -0.5055
     56 C          58.0910   91.0761    5.5064 C.ar    1  UNL1        0.0363
     57 C          58.2275   89.7575    6.2084 C.ar    1  UNL1       -0.0011
     58 H          59.9273   93.5044    3.9014 H       1  UNL1        0.2922
     59 C          63.7485   82.9980    9.8651 C.3     1  UNL1        0.1188
     60 C          62.8006   81.3091   11.5968 C.2     1  UNL1       -0.0034
     61 C          63.1003   81.6813   10.1749 C.2     1  UNL1       -0.0071
@<TRIPOS>BOND
     1    60    61    2
     2    61    59    1
     3    59     1    1
     4     1     2    1
     5     2     3    1
     6     3     4    2
     7     3     5   am
     8     5     6    1
     9     6    50    1
    10    50    51    1
    11    51    52   ar
    12    52    53   ar
    13    53    54   ar
    14    54    55    1
    15    54    56   ar
    16    56    57   ar
    17     6     7    1
    18     7     8    2
    19     7     9   am
    20     9    24    1
    21    24    25    1
    22    25    26   ar
    23    26    27   ar
    24    27    28   ar
    25    28    29   ar
    26    29    30   ar
    27    30    35    1
    28    35    36    2
    29    35    37   am
    30    37    38    1
    31    38    39    1
    32    39    40    1
    33    37    42    1
    34    42    43    1
    35    43    44    1
    36    44    46    1
    37    46    47    1
    38    47    48    1
    39    30    31   ar
    40    31    32   ar
    41    32    33    1
    42    32    34   ar
    43     9    10    1
    44    11    10    1
    45    11    12    1
    46    12    13   am
    47    13    14    2
    48    13    15   am
    49    15    17    1
    50    17    18    1
    51    18    19   ar
    52    19    20   ar
    53    20    21   ar
    54    21    22   ar
    55    22    23   ar
    56    12     1    1
    57    23    18   ar
    58    11     5    1
    59    57    51   ar
    60    34    25   ar
    61    34    29   ar
    62    55    58    1
    63    40    41    1
    64    44    45    1
    65    48    49    1
    66    15    16    1
@<TRIPOS>MOLECULE
*****
 61 66 0 0 0
SMALL
GASTEIGER

@<TRIPOS>ATOM
      1 N          62.6565   84.1755    9.3665 N.3     1  UNL1       -0.1862
      2 C          61.9398   84.2659    8.0519 C.3     1  UNL1        0.1775
      3 C          61.1503   85.4949    7.7110 C.2     1  UNL1        0.2452
      4 O          60.4336   85.5853    6.3963 O.2     1  UNL1       -0.2732
      5 N          61.0776   86.6336    8.6846 N.am    1  UNL1       -0.2541
      6 C          60.2882   87.8627    8.3437 C.3     1  UNL1        0.1577
      7 C          60.2154   89.0014    9.3173 C.2     1  UNL1        0.2445
      8 O          59.4260   90.2304    8.9764 O.2     1  UNL1       -0.2731
      9 N          60.9321   88.9111   10.6320 N.am    1  UNL1       -0.2705
     10 C          61.7216   87.6820   10.9729 C.3     1  UNL1        0.1359
     11 C          61.7943   86.5433    9.9992 C.3     1  UNL1        0.1908
     12 N          62.5837   85.3142   10.3401 N.am    1  UNL1       -0.1863
     13 C          63.3004   85.2239   11.6548 C.2     1  UNL1        0.3191
     14 O          63.2277   86.3626   12.6284 O.2     1  UNL1       -0.2512
     15 N          64.0899   83.9949   11.9957 N.am    1  UNL1       -0.2836
     16 H          64.1376   83.2475   11.3566 H       1  UNL1        0.1513
     17 C          64.8066   83.9045   13.3103 C.3     1  UNL1        0.1177
     18 C          64.2516   84.6022   14.5166 C.ar    1  UNL1       -0.0025
     19 C          63.0995   84.0018   15.2664 C.ar    1  UNL1       -0.0026
     20 C          62.5445   84.6995   16.4727 C.ar    1  UNL1       -0.0003
     21 C          63.1415   85.9975   16.9293 C.ar    1  UNL1       -0.0000
     22 C          64.2937   86.5980   16.1795 C.ar    1  UNL1       -0.0003
     23 C          64.8487   85.9003   14.9732 C.ar    1  UNL1       -0.0026
     24 C          60.8594   90.0498   11.6056 C.3     1  UNL1        0.1217
     25 C          61.9227   90.2117   12.6512 C.ar    1  UNL1        0.0135
     26 C          61.6836   89.7169   14.0470 C.ar    1  UNL1       -0.0012
     27 C          62.7468   89.8787   15.0925 C.ar    1  UNL1       -0.0002
     28 C          64.0492   90.5353   14.7424 C.ar    1  UNL1        0.0016
     29 C          64.2883   91.0301   13.3467 C.ar    1  UNL1        0.0214
     30 C          65.4633   91.7124   12.7112 C.ar    1  UNL1        0.0721
     31 C          65.1263   91.9722   11.2729 C.ar    1  UNL1        0.0805
     32 N          63.7430   91.4505   11.0194 N.ar    1  UNL1       -0.3241
     33 C          63.0068   91.5020    9.7136 C.3     1  UNL1        0.1305
     34 C          63.2251   90.8683   12.3011 C.ar    1  UNL1        0.0577
     35 C          66.7496   92.0718   13.3942 C.2     1  UNL1        0.2506
     36 O          67.6771   90.9904   13.8637 O.2     1  UNL1       -0.2699
     37 N          67.1084   93.5125   13.6077 N.am    1  UNL1       -0.2721
     38 C          66.1809   94.5938   13.1381 C.3     1  UNL1        0.1254
     39 C          66.3720   95.2101   11.7840 C.3     1  UNL1        0.1586
     40 O          65.4928   96.3433   11.3448 O.3     1  UNL1       -0.3802
     41 H          64.5804   96.0275   11.2521 H       1  UNL1        0.2105
     42 C          68.3946   93.8719   14.2906 C.3     1  UNL1        0.1108
     43 C          68.4902   93.8175   15.7866 C.3     1  UNL1        0.0904
     44 N          68.3643   92.5034   16.4988 N.3     1  UNL1       -0.2940
     45 H          68.9172   92.5772   17.3528 H       1  UNL1        0.1234
     46 C          67.0117   91.9951   16.9013 C.3     1  UNL1        0.1008
     47 C          65.7808   92.7744   16.5441 C.3     1  UNL1        0.1542
     48 O          64.6257   92.8315   17.4994 O.3     1  UNL1       -0.3805
     49 H          64.2373   91.9473   17.5903 H       1  UNL1        0.2105
     50 C          59.5715   87.9530    7.0291 C.3     1  UNL1        0.0556
     51 C          59.5050   89.2620    6.2996 C.ar    1  UNL1       -0.0198
     52 C          58.1843   89.9460    6.1051 C.ar    1  UNL1       -0.0011
     53 C          58.1178   91.2549    5.3755 C.ar    1  UNL1        0.0363
     54 C          59.3720   91.8798    4.8404 C.ar    1  UNL1        0.1337
     55 O          59.3055   93.1888    4.1108 O.3     1  UNL1       -0.5055
     56 C          60.6928   91.1958    5.0349 C.ar    1  UNL1        0.0363
     57 C          60.7593   89.8869    5.7644 C.ar    1  UNL1       -0.0011
     58 H          58.4805   93.6160    3.9893 H       1  UNL1        0.2922
     59 C          63.4459   82.9465    9.7074 C.3     1  UNL1        0.1188
     60 C          63.1338   80.4030   10.1355 C.2     1  UNL1       -0.0034
     61 C          62.7995   81.8270   10.4681 C.2     1  UNL1       -0.0071
@<TRIPOS>BOND
     1    60    61    2
     2    61    59    1
     3    59     1    1
     4     1     2    1
     5     2     3    1
     6     3     4    2
     7     3     5   am
     8     5     6    1
     9     6    50    1
    10    50    51    1
    11    51    52   ar
    12    52    53   ar
    13    53    54   ar
    14    54    55    1
    15    54    56   ar
    16    56    57   ar
    17     6     7    1
    18     7     8    2
    19     7     9   am
    20     9    24    1
    21    24    25    1
    22    25    26   ar
    23    26    27   ar
    24    27    28   ar
    25    28    29   ar
    26    29    30   ar
    27    30    35    1
    28    35    36    2
    29    35    37   am
    30    37    38    1
    31    38    39    1
    32    39    40    1
    33    37    42    1
    34    42    43    1
    35    43    44    1
    36    44    46    1
    37    46    47    1
    38    47    48    1
    39    30    31   ar
    40    31    32   ar
    41    32    33    1
    42    32    34   ar
    43     9    10    1
    44    11    10    1
    45    11    12    1
    46    12    13   am
    47    13    14    2
    48    13    15   am
    49    15    17    1
    50    17    18    1
    51    18    19   ar
    52    19    20   ar
    53    20    21   ar
    54    21    22   ar
    55    22    23   ar
    56    12     1    1
    57    23    18   ar
    58    11     5    1
    59    57    51   ar
    60    34    25   ar
    61    34    29   ar
    62    55    58    1
    63    40    41    1
    64    44    45    1
    65    48    49    1
    66    15    16    1
