@<TRIPOS>MOLECULE
*****
 25 27 0 0 0
SMALL
GASTEIGER

@<TRIPOS>ATOM
      1 C          62.8030   83.8497   13.5416 C.ar    1  UNL1        0.2002
      2 N          62.0945   85.0546   12.9974 N.ar    1  UNL1       -0.2150
      3 C          62.2026   85.3937   11.5401 C.ar    1  UNL1        0.0895
      4 C          61.4941   86.5986   10.9959 C.ar    1  UNL1        0.0307
      5 C          61.6022   86.9376    9.5388 C.ar    1  UNL1        0.0592
      6 CL         60.8937   88.1426    8.9945 Cl      1  UNL1       -0.0822
      7 C          62.4188   86.0717    8.6258 C.ar    1  UNL1        0.0116
      8 C          63.1272   84.8668    9.1700 C.ar    1  UNL1        0.0071
      9 C          63.0191   84.5278   10.6272 C.ar    1  UNL1        0.0740
     10 C          63.7276   83.3228   11.1715 C.ar    1  UNL1        0.2643
     11 O          64.5441   82.4569   10.2585 O.2     1  UNL1       -0.2668
     12 N          63.6195   82.9838   12.6286 N.ar    1  UNL1       -0.2669
     13 C          64.3280   81.7788   13.1729 C.3     1  UNL1        0.1363
     14 N          62.6949   83.5107   14.9988 N.pl3   1  UNL1       -0.3039
     15 H          62.7220   82.5702   15.2887 H       1  UNL1        0.1496
     16 C          62.5456   84.6045   16.0143 C.3     1  UNL1        0.0958
     17 C          63.7139   85.4851   16.3452 C.3     1  UNL1        0.0670
     18 C          63.6929   89.8111   15.1062 C.ar    1  UNL1        0.1578
     19 C          64.3362   88.7817   14.2251 C.ar    1  UNL1        0.0397
     20 C          64.3432   87.3398   14.6381 C.ar    1  UNL1        0.0179
     21 C          63.7069   86.9272   15.9322 C.ar    1  UNL1        0.0609
     22 N          63.0636   87.9565   16.8134 N.ar    1  UNL1       -0.2449
     23 C          63.0566   89.3985   16.4004 C.ar    1  UNL1        0.1352
     24 C          64.3180   91.6651   13.3968 C.3     1  UNL1        0.2525
     25 O          63.6858   91.2532   14.6932 O.3     1  UNL1       -0.4699
@<TRIPOS>BOND
     1    24    25    1
     2    25    18    1
     3    18    19   ar
     4    19    20   ar
     5    20    21   ar
     6    21    17    1
     7    17    16    1
     8    16    14    1
     9    14     1    1
    10     1     2   ar
    11     2     3   ar
    12     3     4   ar
    13     4     5   ar
    14     5     6    1
    15     5     7   ar
    16     7     8   ar
    17     8     9   ar
    18     9    10   ar
    19    10    11    2
    20    10    12   ar
    21    12    13    1
    22    21    22   ar
    23    22    23   ar
    24    23    18   ar
    25    12     1   ar
    26     9     3   ar
    27    14    15    1
@<TRIPOS>MOLECULE
*****
 25 27 0 0 0
SMALL
GASTEIGER

@<TRIPOS>ATOM
      1 C          63.5440   87.7216   13.2410 C.ar    1  UNL1        0.2002
      2 N          62.8595   88.5937   12.2306 N.ar    1  UNL1       -0.2150
      3 C          62.0787   87.9729   11.1103 C.ar    1  UNL1        0.0895
      4 C          61.3942   88.8450   10.0999 C.ar    1  UNL1        0.0307
      5 C          60.6135   88.2242    8.9797 C.ar    1  UNL1        0.0592
      6 CL         59.9289   89.0963    7.9692 Cl      1  UNL1       -0.0822
      7 C          60.5172   86.7313    8.8698 C.ar    1  UNL1        0.0116
      8 C          61.2018   85.8593    9.8801 C.ar    1  UNL1        0.0071
      9 C          61.9825   86.4800   11.0004 C.ar    1  UNL1        0.0740
     10 C          62.6671   85.6079   12.0108 C.ar    1  UNL1        0.2643
     11 O          62.5708   84.1151   11.9009 O.2     1  UNL1       -0.2668
     12 N          63.4478   86.2287   13.1311 N.ar    1  UNL1       -0.2669
     13 C          64.1324   85.3566   14.1415 C.3     1  UNL1        0.1363
     14 N          64.3248   88.3424   14.3613 N.pl3   1  UNL1       -0.3039
     15 H          65.2777   88.1239   14.4773 H       1  UNL1        0.1496
     16 C          63.6537   89.2960   15.3048 C.3     1  UNL1        0.0958
     17 C          64.1515   90.7057   15.4264 C.3     1  UNL1        0.0670
     18 C          66.7101   92.4766   12.1756 C.ar    1  UNL1        0.1578
     19 C          67.3375   92.0218   13.4598 C.ar    1  UNL1        0.0397
     20 C          66.4847   91.4315   14.5434 C.ar    1  UNL1        0.0179
     21 C          65.0044   91.2960   14.3427 C.ar    1  UNL1        0.0609
     22 N          64.3769   91.7508   13.0584 N.ar    1  UNL1       -0.2449
     23 C          65.2297   92.3411   11.9749 C.ar    1  UNL1        0.1352
     24 C          68.0491   92.2033    9.9660 C.3     1  UNL1        0.2525
     25 O          67.5629   93.0669   11.0919 O.3     1  UNL1       -0.4699
@<TRIPOS>BOND
     1    24    25    1
     2    25    18    1
     3    18    19   ar
     4    19    20   ar
     5    20    21   ar
     6    21    17    1
     7    17    16    1
     8    16    14    1
     9    14     1    1
    10     1     2   ar
    11     2     3   ar
    12     3     4   ar
    13     4     5   ar
    14     5     6    1
    15     5     7   ar
    16     7     8   ar
    17     8     9   ar
    18     9    10   ar
    19    10    11    2
    20    10    12   ar
    21    12    13    1
    22    21    22   ar
    23    22    23   ar
    24    23    18   ar
    25    12     1   ar
    26     9     3   ar
    27    14    15    1
@<TRIPOS>MOLECULE
*****
 25 27 0 0 0
SMALL
GASTEIGER

@<TRIPOS>ATOM
      1 C          60.5523   87.4920   10.6326 C.ar    1  UNL1        0.2002
      2 N          61.2870   86.7475   11.7077 N.ar    1  UNL1       -0.2150
      3 C          62.1932   85.6082   11.3460 C.ar    1  UNL1        0.0895
      4 C          62.9279   84.8638   12.4211 C.ar    1  UNL1        0.0307
      5 C          63.8340   83.7245   12.0594 C.ar    1  UNL1        0.0592
      6 CL         64.5688   82.9800   13.1346 Cl      1  UNL1       -0.0822
      7 C          64.0055   83.3296   10.6225 C.ar    1  UNL1        0.0116
      8 C          63.2708   84.0741    9.5473 C.ar    1  UNL1        0.0071
      9 C          62.3646   85.2133    9.9091 C.ar    1  UNL1        0.0740
     10 C          61.6299   85.9578    8.8339 C.ar    1  UNL1        0.2643
     11 O          61.8013   85.5630    7.3970 O.2     1  UNL1       -0.2668
     12 N          60.7237   87.0971    9.1956 N.ar    1  UNL1       -0.2669
     13 C          59.9890   87.8416    8.1205 C.3     1  UNL1        0.1363
     14 N          59.6461   88.6313   10.9943 N.pl3   1  UNL1       -0.3039
     15 H          58.6968   88.4614   11.1925 H       1  UNL1        0.1496
     16 C          60.1862   90.0294   11.0541 C.3     1  UNL1        0.0958
     17 C          61.6031   90.3041   10.6455 C.3     1  UNL1        0.0670
     18 C          64.7492   91.0263   13.7807 C.ar    1  UNL1        0.1578
     19 C          64.8467   91.7098   12.4491 C.ar    1  UNL1        0.0397
     20 C          63.7979   91.4691   11.4040 C.ar    1  UNL1        0.0179
     21 C          62.6518   90.5448   11.6906 C.ar    1  UNL1        0.0609
     22 N          62.5544   89.8613   13.0223 N.ar    1  UNL1       -0.2449
     23 C          63.6031   90.1021   14.0673 C.ar    1  UNL1        0.1352
     24 C          67.1759   91.6991   14.4201 C.3     1  UNL1        0.2525
     25 O          65.7980   91.2671   14.8259 O.3     1  UNL1       -0.4699
@<TRIPOS>BOND
     1    24    25    1
     2    25    18    1
     3    18    19   ar
     4    19    20   ar
     5    20    21   ar
     6    21    17    1
     7    17    16    1
     8    16    14    1
     9    14     1    1
    10     1     2   ar
    11     2     3   ar
    12     3     4   ar
    13     4     5   ar
    14     5     6    1
    15     5     7   ar
    16     7     8   ar
    17     8     9   ar
    18     9    10   ar
    19    10    11    2
    20    10    12   ar
    21    12    13    1
    22    21    22   ar
    23    22    23   ar
    24    23    18   ar
    25    12     1   ar
    26     9     3   ar
    27    14    15    1
@<TRIPOS>MOLECULE
*****
 25 27 0 0 0
SMALL
GASTEIGER

@<TRIPOS>ATOM
      1 C          62.7855   87.4207   12.0554 C.ar    1  UNL1        0.2002
      2 N          63.1719   86.2814   12.9512 N.ar    1  UNL1       -0.2150
      3 C          63.1852   84.8793   12.4182 C.ar    1  UNL1        0.0895
      4 C          63.5715   83.7400   13.3140 C.ar    1  UNL1        0.0307
      5 C          63.5848   82.3380   12.7809 C.ar    1  UNL1        0.0592
      6 CL         63.9711   81.1985   13.6767 Cl      1  UNL1       -0.0822
      7 C          63.2116   82.0754   11.3520 C.ar    1  UNL1        0.0116
      8 C          62.8253   83.2147   10.4561 C.ar    1  UNL1        0.0071
      9 C          62.8120   84.6167   10.9892 C.ar    1  UNL1        0.0740
     10 C          62.4257   85.7561   10.0934 C.ar    1  UNL1        0.2643
     11 O          62.0526   85.4935    8.6645 O.2     1  UNL1       -0.2668
     12 N          62.4124   87.1581   10.6265 N.ar    1  UNL1       -0.2669
     13 C          62.0261   88.2976    9.7306 C.3     1  UNL1        0.1363
     14 N          62.7723   88.8228   12.5885 N.pl3   1  UNL1       -0.3039
     15 H          62.0337   89.4309   12.3560 H       1  UNL1        0.1496
     16 C          63.8843   89.2984   13.4757 C.3     1  UNL1        0.0958
     17 C          63.9420   90.7357   13.9008 C.3     1  UNL1        0.0670
     18 C          66.2693   93.7130   11.4576 C.ar    1  UNL1        0.1578
     19 C          65.3163   92.7711   10.7834 C.ar    1  UNL1        0.0397
     20 C          64.5405   91.7787   11.5978 C.ar    1  UNL1        0.0179
     21 C          64.7178   91.7282   13.0864 C.ar    1  UNL1        0.0609
     22 N          65.6709   92.6700   13.7606 N.ar    1  UNL1       -0.2449
     23 C          66.4466   93.6624   12.9462 C.ar    1  UNL1        0.1352
     24 C          67.7705   94.2588    9.4085 C.3     1  UNL1        0.2525
     25 O          67.0451   94.7054   10.6432 O.3     1  UNL1       -0.4699
@<TRIPOS>BOND
     1    24    25    1
     2    25    18    1
     3    18    19   ar
     4    19    20   ar
     5    20    21   ar
     6    21    17    1
     7    17    16    1
     8    16    14    1
     9    14     1    1
    10     1     2   ar
    11     2     3   ar
    12     3     4   ar
    13     4     5   ar
    14     5     6    1
    15     5     7   ar
    16     7     8   ar
    17     8     9   ar
    18     9    10   ar
    19    10    11    2
    20    10    12   ar
    21    12    13    1
    22    21    22   ar
    23    22    23   ar
    24    23    18   ar
    25    12     1   ar
    26     9     3   ar
    27    14    15    1
@<TRIPOS>MOLECULE
*****
 25 27 0 0 0
SMALL
GASTEIGER

@<TRIPOS>ATOM
      1 C          62.4665   88.9915   11.4530 C.ar    1  UNL1        0.2002
      2 N          63.2059   88.2429   12.5220 N.ar    1  UNL1       -0.2150
      3 C          63.1581   86.7441   12.5580 C.ar    1  UNL1        0.0895
      4 C          63.8975   85.9955   13.6271 C.ar    1  UNL1        0.0307
      5 C          63.8496   84.4968   13.6630 C.ar    1  UNL1        0.0592
      6 CL         64.5891   83.7481   14.7321 Cl      1  UNL1       -0.0822
      7 C          63.0623   83.7465   12.6299 C.ar    1  UNL1        0.0116
      8 C          62.3229   84.4951   11.5609 C.ar    1  UNL1        0.0071
      9 C          62.3708   85.9939   11.5249 C.ar    1  UNL1        0.0740
     10 C          61.6313   86.7425   10.4559 C.ar    1  UNL1        0.2643
     11 O          60.8440   85.9923    9.4228 O.2     1  UNL1       -0.2668
     12 N          61.6792   88.2413   10.4199 N.ar    1  UNL1       -0.2669
     13 C          60.9397   88.9899    9.3508 C.3     1  UNL1        0.1363
     14 N          62.5144   90.4903   11.4170 N.pl3   1  UNL1       -0.3039
     15 H          62.0055   91.0151   12.0765 H       1  UNL1        0.1496
     16 C          63.3375   91.1897   10.3762 C.3     1  UNL1        0.0958
     17 C          64.2862   92.2798   10.7781 C.3     1  UNL1        0.0670
     18 C          66.8949   91.7669   14.4088 C.ar    1  UNL1        0.1578
     19 C          67.5009   92.1906   13.1037 C.ar    1  UNL1        0.0397
     20 C          66.6313   92.3616   11.8935 C.ar    1  UNL1        0.0179
     21 C          65.1558   92.1088   11.9884 C.ar    1  UNL1        0.0609
     22 N          64.5499   91.6851   13.2935 N.ar    1  UNL1       -0.2449
     23 C          65.4194   91.5141   14.5037 C.ar    1  UNL1        0.1352
     24 C          68.7777   92.6452   15.9688 C.3     1  UNL1        0.2525
     25 O          67.7645   91.5959   15.6190 O.3     1  UNL1       -0.4699
@<TRIPOS>BOND
     1    24    25    1
     2    25    18    1
     3    18    19   ar
     4    19    20   ar
     5    20    21   ar
     6    21    17    1
     7    17    16    1
     8    16    14    1
     9    14     1    1
    10     1     2   ar
    11     2     3   ar
    12     3     4   ar
    13     4     5   ar
    14     5     6    1
    15     5     7   ar
    16     7     8   ar
    17     8     9   ar
    18     9    10   ar
    19    10    11    2
    20    10    12   ar
    21    12    13    1
    22    21    22   ar
    23    22    23   ar
    24    23    18   ar
    25    12     1   ar
    26     9     3   ar
    27    14    15    1
@<TRIPOS>MOLECULE
*****
 25 27 0 0 0
SMALL
GASTEIGER

@<TRIPOS>ATOM
      1 C          64.0244   87.7106   14.8535 C.ar    1  UNL1        0.2002
      2 N          64.1820   86.6844   13.7710 N.ar    1  UNL1       -0.2150
      3 C          63.6952   85.2825   13.9898 C.ar    1  UNL1        0.0895
      4 C          63.8528   84.2563   12.9072 C.ar    1  UNL1        0.0307
      5 C          63.3660   82.8545   13.1260 C.ar    1  UNL1        0.0592
      6 CL         63.5235   81.8282   12.0434 Cl      1  UNL1       -0.0822
      7 C          62.7216   82.4789   14.4275 C.ar    1  UNL1        0.0116
      8 C          62.5640   83.5051   15.5100 C.ar    1  UNL1        0.0071
      9 C          63.0508   84.9069   15.2912 C.ar    1  UNL1        0.0740
     10 C          62.8932   85.9332   16.3738 C.ar    1  UNL1        0.2643
     11 O          62.2488   85.5576   17.6752 O.2     1  UNL1       -0.2668
     12 N          63.3800   87.3350   16.1550 N.ar    1  UNL1       -0.2669
     13 C          63.2224   88.3613   17.2376 C.3     1  UNL1        0.1363
     14 N          64.5112   89.1125   14.6347 N.pl3   1  UNL1       -0.3039
     15 H          65.4616   89.3304   14.7709 H       1  UNL1        0.1496
     16 C          63.5500   90.1822   14.2084 C.3     1  UNL1        0.0958
     17 C          63.5039   90.6211   12.7748 C.3     1  UNL1        0.0670
     18 C          66.3068   93.8224   11.3103 C.ar    1  UNL1        0.1578
     19 C          65.4827   93.0413   10.3301 C.ar    1  UNL1        0.0397
     20 C          64.5484   91.9742   10.8183 C.ar    1  UNL1        0.0179
     21 C          64.4382   91.6882   12.2867 C.ar    1  UNL1        0.0609
     22 N          65.2623   92.4693   13.2668 N.ar    1  UNL1       -0.2449
     23 C          66.1966   93.5364   12.7786 C.ar    1  UNL1        0.1352
     24 C          66.8069   95.8260    9.7337 C.3     1  UNL1        0.2525
     25 O          67.2411   94.8896   10.8221 O.3     1  UNL1       -0.4699
@<TRIPOS>BOND
     1    24    25    1
     2    25    18    1
     3    18    19   ar
     4    19    20   ar
     5    20    21   ar
     6    21    17    1
     7    17    16    1
     8    16    14    1
     9    14     1    1
    10     1     2   ar
    11     2     3   ar
    12     3     4   ar
    13     4     5   ar
    14     5     6    1
    15     5     7   ar
    16     7     8   ar
    17     8     9   ar
    18     9    10   ar
    19    10    11    2
    20    10    12   ar
    21    12    13    1
    22    21    22   ar
    23    22    23   ar
    24    23    18   ar
    25    12     1   ar
    26     9     3   ar
    27    14    15    1
@<TRIPOS>MOLECULE
*****
 25 27 0 0 0
SMALL
GASTEIGER

@<TRIPOS>ATOM
      1 C          64.0559   85.0268   14.5150 C.ar    1  UNL1        0.2002
      2 N          64.5131   86.3793   14.0553 N.ar    1  UNL1       -0.2150
      3 C          64.1668   87.6001   14.8553 C.ar    1  UNL1        0.0895
      4 C          64.6241   88.9527   14.3956 C.ar    1  UNL1        0.0307
      5 C          64.2778   90.1733   15.1956 C.ar    1  UNL1        0.0592
      6 CL         64.7351   91.5260   14.7359 Cl      1  UNL1       -0.0822
      7 C          63.4741   90.0414   16.4552 C.ar    1  UNL1        0.0116
      8 C          63.0168   88.6888   16.9149 C.ar    1  UNL1        0.0071
      9 C          63.3632   87.4682   16.1149 C.ar    1  UNL1        0.0740
     10 C          62.9059   86.1155   16.5746 C.ar    1  UNL1        0.2643
     11 O          62.1022   85.9836   17.8343 O.2     1  UNL1       -0.2668
     12 N          63.2522   84.8948   15.7746 N.ar    1  UNL1       -0.2669
     13 C          62.7949   83.5422   16.2343 C.3     1  UNL1        0.1363
     14 N          64.4022   83.8060   13.7150 N.pl3   1  UNL1       -0.3039
     15 H          64.7908   83.0191   14.1610 H       1  UNL1        0.1496
     16 C          64.1565   83.7843   12.2354 C.3     1  UNL1        0.0958
     17 C          62.7587   83.9078   11.7054 C.3     1  UNL1        0.0670
     18 C          61.3985   87.7621    9.8227 C.ar    1  UNL1        0.1578
     19 C          62.1119   86.7341    8.9955 C.ar    1  UNL1        0.0397
     20 C          62.5652   85.4494    9.6230 C.ar    1  UNL1        0.0179
     21 C          62.3053   85.1926   11.0779 C.ar    1  UNL1        0.0609
     22 N          61.5920   86.2206   11.9051 N.ar    1  UNL1       -0.2449
     23 C          61.1386   87.5053   11.2776 C.ar    1  UNL1        0.1352
     24 C          60.0869   89.9997    9.9734 C.3     1  UNL1        0.2525
     25 O          60.9451   89.0469    9.1952 O.3     1  UNL1       -0.4699
@<TRIPOS>BOND
     1    24    25    1
     2    25    18    1
     3    18    19   ar
     4    19    20   ar
     5    20    21   ar
     6    21    17    1
     7    17    16    1
     8    16    14    1
     9    14     1    1
    10     1     2   ar
    11     2     3   ar
    12     3     4   ar
    13     4     5   ar
    14     5     6    1
    15     5     7   ar
    16     7     8   ar
    17     8     9   ar
    18     9    10   ar
    19    10    11    2
    20    10    12   ar
    21    12    13    1
    22    21    22   ar
    23    22    23   ar
    24    23    18   ar
    25    12     1   ar
    26     9     3   ar
    27    14    15    1
@<TRIPOS>MOLECULE
*****
 25 27 0 0 0
SMALL
GASTEIGER

@<TRIPOS>ATOM
      1 C          63.8728   89.5407   13.5253 C.ar    1  UNL1        0.2002
      2 N          64.2213   88.3152   14.3169 N.ar    1  UNL1       -0.2150
      3 C          63.8324   86.9585   13.8089 C.ar    1  UNL1        0.0895
      4 C          64.1809   85.7330   14.6005 C.ar    1  UNL1        0.0307
      5 C          63.7921   84.3763   14.0925 C.ar    1  UNL1        0.0592
      6 CL         64.1406   83.1507   14.8841 Cl      1  UNL1       -0.0822
      7 C          63.0547   84.2451   12.7929 C.ar    1  UNL1        0.0116
      8 C          62.7062   85.4706   12.0012 C.ar    1  UNL1        0.0071
      9 C          63.0951   86.8272   12.5093 C.ar    1  UNL1        0.0740
     10 C          62.7466   88.0528   11.7176 C.ar    1  UNL1        0.2643
     11 O          62.0092   87.9216   10.4180 O.2     1  UNL1       -0.2668
     12 N          63.1354   89.4095   12.2257 N.ar    1  UNL1       -0.2669
     13 C          62.7869   90.6351   11.4340 C.3     1  UNL1        0.1363
     14 N          64.2616   90.8975   14.0333 N.pl3   1  UNL1       -0.3039
     15 H          63.5658   91.5521   14.2712 H       1  UNL1        0.1496
     16 C          65.7106   91.2569   14.1789 C.3     1  UNL1        0.0958
     17 C          66.1480   92.6839   14.0294 C.3     1  UNL1        0.0670
     18 C          66.9656   94.3695    9.9379 C.ar    1  UNL1        0.1578
     19 C          67.1877   92.9105   10.2061 C.ar    1  UNL1        0.0397
     20 C          66.9151   92.3487   11.5699 C.ar    1  UNL1        0.0179
     21 C          66.4205   93.2458   12.6655 C.ar    1  UNL1        0.0609
     22 N          66.1985   94.7048   12.3974 N.ar    1  UNL1       -0.2449
     23 C          66.4711   95.2667   11.0336 C.ar    1  UNL1        0.1352
     24 C          66.7383   96.2988    8.2127 C.3     1  UNL1        0.2525
     25 O          67.2382   94.9315    8.5741 O.3     1  UNL1       -0.4699
@<TRIPOS>BOND
     1    24    25    1
     2    25    18    1
     3    18    19   ar
     4    19    20   ar
     5    20    21   ar
     6    21    17    1
     7    17    16    1
     8    16    14    1
     9    14     1    1
    10     1     2   ar
    11     2     3   ar
    12     3     4   ar
    13     4     5   ar
    14     5     6    1
    15     5     7   ar
    16     7     8   ar
    17     8     9   ar
    18     9    10   ar
    19    10    11    2
    20    10    12   ar
    21    12    13    1
    22    21    22   ar
    23    22    23   ar
    24    23    18   ar
    25    12     1   ar
    26     9     3   ar
    27    14    15    1
@<TRIPOS>MOLECULE
*****
 25 27 0 0 0
SMALL
GASTEIGER

@<TRIPOS>ATOM
      1 C          62.8875   90.4355   12.7245 C.ar    1  UNL1        0.2002
      2 N          63.3443   91.1796   11.5049 N.ar    1  UNL1       -0.2150
      3 C          64.5936   92.0084   11.5560 C.ar    1  UNL1        0.0895
      4 C          65.0504   92.7525   10.3363 C.ar    1  UNL1        0.0307
      5 C          66.2996   93.5812   10.3875 C.ar    1  UNL1        0.0592
      6 CL         66.7564   94.3254    9.1678 Cl      1  UNL1       -0.0822
      7 C          67.0921   93.6657   11.6582 C.ar    1  UNL1        0.0116
      8 C          66.6353   92.9215   12.8779 C.ar    1  UNL1        0.0071
      9 C          65.3861   92.0929   12.8267 C.ar    1  UNL1        0.0740
     10 C          64.9292   91.3486   14.0464 C.ar    1  UNL1        0.2643
     11 O          65.7217   91.4331   15.3172 O.2     1  UNL1       -0.2668
     12 N          63.6800   90.5200   13.9953 N.ar    1  UNL1       -0.2669
     13 C          63.2232   89.7757   15.2149 C.3     1  UNL1        0.1363
     14 N          61.6382   89.6068   12.6734 N.pl3   1  UNL1       -0.3039
     15 H          61.0866   89.4975   13.4815 H       1  UNL1        0.1496
     16 C          61.2294   88.9445   11.3911 C.3     1  UNL1        0.0958
     17 C          62.1365   87.9410   10.7430 C.3     1  UNL1        0.0670
     18 C          63.2959   84.1974   12.9546 C.ar    1  UNL1        0.1578
     19 C          62.5874   84.1005   11.6361 C.ar    1  UNL1        0.0397
     20 C          62.2010   85.3483   10.8989 C.ar    1  UNL1        0.0179
     21 C          62.5230   86.6931   11.4803 C.ar    1  UNL1        0.0609
     22 N          63.2315   86.7900   12.7988 N.ar    1  UNL1       -0.2449
     23 C          63.6179   85.5421   13.5360 C.ar    1  UNL1        0.1352
     24 C          63.8942   81.6691   12.9397 C.3     1  UNL1        0.2525
     25 O          63.6824   82.9495   13.6919 O.3     1  UNL1       -0.4699
@<TRIPOS>BOND
     1    24    25    1
     2    25    18    1
     3    18    19   ar
     4    19    20   ar
     5    20    21   ar
     6    21    17    1
     7    17    16    1
     8    16    14    1
     9    14     1    1
    10     1     2   ar
    11     2     3   ar
    12     3     4   ar
    13     4     5   ar
    14     5     6    1
    15     5     7   ar
    16     7     8   ar
    17     8     9   ar
    18     9    10   ar
    19    10    11    2
    20    10    12   ar
    21    12    13    1
    22    21    22   ar
    23    22    23   ar
    24    23    18   ar
    25    12     1   ar
    26     9     3   ar
    27    14    15    1
