@<TRIPOS>MOLECULE
*****
 27 30 0 0 0
SMALL
GASTEIGER

@<TRIPOS>ATOM
      1 C          64.7513   90.5626   14.4131 C.ar    1  UNL1        0.0516
      2 C          63.9304   90.9280   13.2120 C.ar    1  UNL1        0.0147
      3 C          64.4260   91.9700   12.2537 C.ar    1  UNL1        0.0010
      4 C          65.7427   92.6466   12.4963 C.ar    1  UNL1       -0.0014
      5 C          66.5636   92.2812   13.6974 C.ar    1  UNL1        0.0010
      6 C          66.0679   91.2392   14.6557 C.ar    1  UNL1        0.0147
      7 C          66.2383   93.6886   11.5379 C.2     1  UNL1        0.0158
      8 C          65.8237   95.1203   11.7063 C.2     1  UNL1        0.0487
      9 C          66.3193   96.1623   10.7479 C.2     1  UNL1        0.2355
     10 N          67.2295   95.7727    9.6210 N.2     1  UNL1       -0.0325
     11 C          67.6441   94.3410    9.4527 C.2     1  UNL1        0.3799
     12 N          68.5247   93.6629    8.4453 N.2     1  UNL1       -0.0106
     13 C          68.5733   92.2018    8.7811 C.2     1  UNL1        0.3351
     14 N          67.7227   91.9769    9.9960 N.2     1  UNL1       -0.2103
     15 C          67.1485   93.2990   10.4111 C.3     1  UNL1        0.2404
     16 O          64.4750   87.7123   13.5189 O.2     1  UNL1       -0.2522
     17 C          64.1175   88.0954   14.9244 C.2     1  UNL1        0.3082
     18 N          63.6219   87.0534   15.8828 N.am    1  UNL1       -0.2681
     19 N          64.2557   89.5206   15.3715 N.am    1  UNL1       -0.2681
     20 H          63.3873   87.3049   16.8052 H       1  UNL1        0.1564
     21 H          64.0211   89.7721   16.2939 H       1  UNL1        0.1564
     22 C          63.4837   85.6282   15.4357 C.ar    1  UNL1        0.0516
     23 C          64.6004   84.9664   14.6841 C.ar    1  UNL1        0.0147
     24 C          64.4623   83.5413   14.2370 C.ar    1  UNL1        0.0013
     25 C          63.2074   82.7780   14.5415 C.ar    1  UNL1        0.0001
     26 C          62.0907   83.4398   15.2932 C.ar    1  UNL1        0.0013
     27 C          62.2289   84.8650   15.7403 C.ar    1  UNL1        0.0147
@<TRIPOS>BOND
     1    16    17    2
     2    17    18   am
     3    18    22    1
     4    22    23   ar
     5    23    24   ar
     6    24    25   ar
     7    25    26   ar
     8    26    27   ar
     9    17    19   am
    10    19     1    1
    11     1     2   ar
    12     2     3   ar
    13     3     4   ar
    14     4     7    1
    15     7     8    2
    16     8     9    1
    17     9    10    2
    18    10    11    1
    19    11    12    2
    20    12    13    1
    21    13    14    2
    22    14    15    1
    23     4     5   ar
    24     5     6   ar
    25    27    22   ar
    26     6     1   ar
    27    15     7    1
    28    15    11    1
    29    18    20    1
    30    19    21    1
@<TRIPOS>MOLECULE
*****
 27 30 0 0 0
SMALL
GASTEIGER

@<TRIPOS>ATOM
      1 C          63.5099   87.5836   15.7749 C.ar    1  UNL1        0.0516
      2 C          63.1452   88.8393   16.5099 C.ar    1  UNL1        0.0147
      3 C          63.7455   90.1507   16.0981 C.ar    1  UNL1        0.0010
      4 C          64.7107   90.2065   14.9511 C.ar    1  UNL1       -0.0014
      5 C          65.0755   88.9509   14.2160 C.ar    1  UNL1        0.0010
      6 C          64.4751   87.6394   14.6280 C.ar    1  UNL1        0.0147
      7 C          65.3111   91.5180   14.5393 C.2     1  UNL1        0.0158
      8 C          66.0540   92.3505   15.5417 C.2     1  UNL1        0.0487
      9 C          66.6543   93.6619   15.1300 C.2     1  UNL1        0.2355
     10 N          66.5118   94.1410   13.7156 N.2     1  UNL1       -0.0325
     11 C          65.7688   93.3084   12.7131 C.2     1  UNL1        0.3799
     12 N          65.4682   93.5196   11.2588 N.2     1  UNL1       -0.0106
     13 C          64.6820   92.3386   10.7719 C.2     1  UNL1        0.3351
     14 N          64.4968   91.3976   11.9252 N.2     1  UNL1       -0.2103
     15 C          65.1685   91.9970   13.1250 C.3     1  UNL1        0.2404
     16 O          63.6687   85.2180   13.9367 O.2     1  UNL1       -0.2522
     17 C          62.9890   85.0893   15.2676 C.2     1  UNL1        0.3082
     18 N          62.3886   83.7779   15.6794 N.am    1  UNL1       -0.2681
     19 N          62.9096   86.2722   16.1867 N.am    1  UNL1       -0.2681
     20 H          61.9425   83.6935   16.5530 H       1  UNL1        0.1564
     21 H          62.4635   86.1877   17.0602 H       1  UNL1        0.1564
     22 C          62.4680   82.5951   14.7604 C.ar    1  UNL1        0.0516
     23 C          63.7657   82.2509   14.0914 C.ar    1  UNL1        0.0147
     24 C          63.8451   81.0681   13.1723 C.ar    1  UNL1        0.0013
     25 C          62.6269   80.2295   12.9222 C.ar    1  UNL1        0.0001
     26 C          61.3291   80.5737   13.5913 C.ar    1  UNL1        0.0013
     27 C          61.2497   81.7565   14.5103 C.ar    1  UNL1        0.0147
@<TRIPOS>BOND
     1    16    17    2
     2    17    18   am
     3    18    22    1
     4    22    23   ar
     5    23    24   ar
     6    24    25   ar
     7    25    26   ar
     8    26    27   ar
     9    17    19   am
    10    19     1    1
    11     1     2   ar
    12     2     3   ar
    13     3     4   ar
    14     4     7    1
    15     7     8    2
    16     8     9    1
    17     9    10    2
    18    10    11    1
    19    11    12    2
    20    12    13    1
    21    13    14    2
    22    14    15    1
    23     4     5   ar
    24     5     6   ar
    25    27    22   ar
    26     6     1   ar
    27    15     7    1
    28    15    11    1
    29    18    20    1
    30    19    21    1
@<TRIPOS>MOLECULE
*****
 27 30 0 0 0
SMALL
GASTEIGER

@<TRIPOS>ATOM
      1 C          63.0077   88.0482   12.2701 C.ar    1  UNL1        0.0516
      2 C          63.7914   87.9943   13.5480 C.ar    1  UNL1        0.0147
      3 C          64.5554   89.1993   14.0107 C.ar    1  UNL1        0.0010
      4 C          64.5358   90.4584   13.1954 C.ar    1  UNL1       -0.0014
      5 C          63.7521   90.5123   11.9176 C.ar    1  UNL1        0.0010
      6 C          62.9881   89.3072   11.4549 C.ar    1  UNL1        0.0147
      7 C          65.2998   91.6634   13.6582 C.2     1  UNL1        0.0158
      8 C          65.7395   91.7691   15.0884 C.2     1  UNL1        0.0487
      9 C          66.5035   92.9741   15.5511 C.2     1  UNL1        0.2355
     10 N          66.8279   94.0736   14.5836 N.2     1  UNL1       -0.0325
     11 C          66.3882   93.9679   13.1534 C.2     1  UNL1        0.3799
     12 N          66.5609   94.8861   11.9798 N.2     1  UNL1       -0.0106
     13 C          65.9037   94.2484   10.7918 C.2     1  UNL1        0.3351
     14 N          65.3247   92.9362   11.2311 N.2     1  UNL1       -0.2103
     15 C          65.6241   92.7629   12.6907 C.3     1  UNL1        0.2404
     16 O          63.7845   85.3170   13.2381 O.2     1  UNL1       -0.2522
     17 C          62.6321   85.4775   12.2914 C.2     1  UNL1        0.3082
     18 N          61.8682   84.2725   11.8288 N.am    1  UNL1       -0.2681
     19 N          62.2438   86.8432   11.8074 N.am    1  UNL1       -0.2681
     20 H          61.1118   84.3779   11.2074 H       1  UNL1        0.1564
     21 H          61.4874   86.9486   11.1861 H       1  UNL1        0.1564
     22 C          62.2565   82.9068   12.3128 C.ar    1  UNL1        0.0516
     23 C          62.0359   82.5288   13.7475 C.ar    1  UNL1        0.0147
     24 C          62.4242   81.1632   14.2315 C.ar    1  UNL1        0.0013
     25 C          63.0331   80.1756   13.2808 C.ar    1  UNL1        0.0001
     26 C          63.2538   80.5536   11.8460 C.ar    1  UNL1        0.0013
     27 C          62.8654   81.9193   11.3620 C.ar    1  UNL1        0.0147
@<TRIPOS>BOND
     1    16    17    2
     2    17    18   am
     3    18    22    1
     4    22    23   ar
     5    23    24   ar
     6    24    25   ar
     7    25    26   ar
     8    26    27   ar
     9    17    19   am
    10    19     1    1
    11     1     2   ar
    12     2     3   ar
    13     3     4   ar
    14     4     7    1
    15     7     8    2
    16     8     9    1
    17     9    10    2
    18    10    11    1
    19    11    12    2
    20    12    13    1
    21    13    14    2
    22    14    15    1
    23     4     5   ar
    24     5     6   ar
    25    27    22   ar
    26     6     1   ar
    27    15     7    1
    28    15    11    1
    29    18    20    1
    30    19    21    1
@<TRIPOS>MOLECULE
*****
 27 30 0 0 0
SMALL
GASTEIGER

@<TRIPOS>ATOM
      1 C          64.7085   91.0816   13.5232 C.ar    1  UNL1        0.0516
      2 C          65.3005   90.2994   14.6580 C.ar    1  UNL1        0.0147
      3 C          64.9927   88.8386   14.8031 C.ar    1  UNL1        0.0010
      4 C          64.0928   88.1598   13.8134 C.ar    1  UNL1       -0.0014
      5 C          63.5008   88.9418   12.6785 C.ar    1  UNL1        0.0010
      6 C          63.8087   90.4027   12.5335 C.ar    1  UNL1        0.0147
      7 C          63.7850   86.6989   13.9585 C.2     1  UNL1        0.0158
      8 C          64.0914   85.9921   15.2456 C.2     1  UNL1        0.0487
      9 C          63.7836   84.5313   15.3908 C.2     1  UNL1        0.2355
     10 N          63.1694   83.7771   14.2488 N.2     1  UNL1       -0.0325
     11 C          62.8630   84.4838   12.9617 C.2     1  UNL1        0.3799
     12 N          62.2624   84.0063   11.6728 N.2     1  UNL1       -0.0106
     13 C          62.1990   85.1721   10.7311 C.2     1  UNL1        0.3351
     14 N          62.7604   86.3701   11.4380 N.2     1  UNL1       -0.2103
     15 C          63.1708   85.9447   12.8166 C.3     1  UNL1        0.2404
     16 O          65.5342   92.1829   10.8576 O.2     1  UNL1       -0.2522
     17 C          65.4292   93.0931   12.0452 C.2     1  UNL1        0.3082
     18 N          65.7370   94.5539   11.9001 N.am    1  UNL1       -0.2681
     19 N          65.0163   92.5424   13.3781 N.am    1  UNL1       -0.2681
     20 H          65.6680   95.1513   12.6796 H       1  UNL1        0.1564
     21 H          64.9473   93.1397   14.1576 H       1  UNL1        0.1564
     22 C          66.1498   95.1047   10.5673 C.ar    1  UNL1        0.0516
     23 C          67.2932   94.4838    9.8209 C.ar    1  UNL1        0.0147
     24 C          67.7061   95.0345    8.4881 C.ar    1  UNL1        0.0013
     25 C          66.9756   96.2061    7.9018 C.ar    1  UNL1        0.0001
     26 C          65.8322   96.8270    8.6483 C.ar    1  UNL1        0.0013
     27 C          65.4193   96.2763    9.9811 C.ar    1  UNL1        0.0147
@<TRIPOS>BOND
     1    16    17    2
     2    17    18   am
     3    18    22    1
     4    22    23   ar
     5    23    24   ar
     6    24    25   ar
     7    25    26   ar
     8    26    27   ar
     9    17    19   am
    10    19     1    1
    11     1     2   ar
    12     2     3   ar
    13     3     4   ar
    14     4     7    1
    15     7     8    2
    16     8     9    1
    17     9    10    2
    18    10    11    1
    19    11    12    2
    20    12    13    1
    21    13    14    2
    22    14    15    1
    23     4     5   ar
    24     5     6   ar
    25    27    22   ar
    26     6     1   ar
    27    15     7    1
    28    15    11    1
    29    18    20    1
    30    19    21    1
@<TRIPOS>MOLECULE
*****
 27 30 0 0 0
SMALL
GASTEIGER

@<TRIPOS>ATOM
      1 C          62.7428   88.5207   11.5896 C.ar    1  UNL1        0.0516
      2 C          63.4809   88.7927   12.8668 C.ar    1  UNL1        0.0147
      3 C          64.2476   90.0712   13.0323 C.ar    1  UNL1        0.0010
      4 C          64.2762   91.0779   11.9205 C.ar    1  UNL1       -0.0014
      5 C          63.5382   90.8060   10.6433 C.ar    1  UNL1        0.0010
      6 C          62.7715   89.5273   10.4779 C.ar    1  UNL1        0.0147
      7 C          65.0430   92.3565   12.0861 C.2     1  UNL1        0.0158
      8 C          65.0955   93.3502   10.9637 C.2     1  UNL1        0.0487
      9 C          65.8621   94.6287   11.1292 C.2     1  UNL1        0.2355
     10 N          66.5764   94.9136   12.4171 N.2     1  UNL1       -0.0325
     11 C          66.5239   93.9199   13.5395 C.2     1  UNL1        0.3799
     12 N          67.1242   93.9258   14.9142 N.2     1  UNL1       -0.0106
     13 C          66.7284   92.6509   15.5982 C.2     1  UNL1        0.3351
     14 N          65.8836   91.8570   14.6463 N.2     1  UNL1       -0.2103
     15 C          65.7572   92.6413   13.3740 C.3     1  UNL1        0.2404
     16 O          63.8066   85.9716   12.7601 O.2     1  UNL1       -0.2522
     17 C          62.5080   85.9675   12.0093 C.2     1  UNL1        0.3082
     18 N          61.7413   84.6890   11.8438 N.am    1  UNL1       -0.2681
     19 N          61.9761   87.2422   11.4241 N.am    1  UNL1       -0.2681
     20 H          60.8890   84.6864   11.3511 H       1  UNL1        0.1564
     21 H          61.1238   87.2396   10.9313 H       1  UNL1        0.1564
     22 C          62.2732   83.4144   12.4291 C.ar    1  UNL1        0.0516
     23 C          62.3906   83.2639   13.9169 C.ar    1  UNL1        0.0147
     24 C          62.9224   81.9894   14.5022 C.ar    1  UNL1        0.0013
     25 C          63.3369   80.8652   13.5997 C.ar    1  UNL1        0.0001
     26 C          63.2195   81.0156   12.1118 C.ar    1  UNL1        0.0013
     27 C          62.6876   82.2903   11.5266 C.ar    1  UNL1        0.0147
@<TRIPOS>BOND
     1    16    17    2
     2    17    18   am
     3    18    22    1
     4    22    23   ar
     5    23    24   ar
     6    24    25   ar
     7    25    26   ar
     8    26    27   ar
     9    17    19   am
    10    19     1    1
    11     1     2   ar
    12     2     3   ar
    13     3     4   ar
    14     4     7    1
    15     7     8    2
    16     8     9    1
    17     9    10    2
    18    10    11    1
    19    11    12    2
    20    12    13    1
    21    13    14    2
    22    14    15    1
    23     4     5   ar
    24     5     6   ar
    25    27    22   ar
    26     6     1   ar
    27    15     7    1
    28    15    11    1
    29    18    20    1
    30    19    21    1
@<TRIPOS>MOLECULE
*****
 27 30 0 0 0
SMALL
GASTEIGER

@<TRIPOS>ATOM
      1 C          64.2496   90.5072   13.0925 C.ar    1  UNL1        0.0516
      2 C          64.6394   89.5663   14.1938 C.ar    1  UNL1        0.0147
      3 C          64.2720   88.1147   14.1052 C.ar    1  UNL1        0.0010
      4 C          63.5148   87.6040   12.9152 C.ar    1  UNL1       -0.0014
      5 C          63.1251   88.5448   11.8139 C.ar    1  UNL1        0.0010
      6 C          63.4925   89.9965   11.9026 C.ar    1  UNL1        0.0147
      7 C          63.1475   86.1523   12.8266 C.2     1  UNL1        0.0158
      8 C          62.7729   85.5529   11.5036 C.2     1  UNL1        0.0487
      9 C          62.4056   84.1014   11.4149 C.2     1  UNL1        0.2355
     10 N          62.4127   83.2491   12.6494 N.2     1  UNL1       -0.0325
     11 C          62.7872   83.8486   13.9724 C.2     1  UNL1        0.3799
     12 N          62.8832   83.2612   15.3492 N.2     1  UNL1       -0.0106
     13 C          63.3100   84.3498   16.2888 C.2     1  UNL1        0.3351
     14 N          63.4777   85.6100   15.4926 N.2     1  UNL1       -0.2103
     15 C          63.1546   85.3002   14.0610 C.3     1  UNL1        0.2404
     16 O          65.3713   91.9197   10.6953 O.2     1  UNL1       -0.2522
     17 C          65.1779   92.6651   11.9825 C.2     1  UNL1        0.3082
     18 N          65.5452   94.1166   12.0711 N.am    1  UNL1       -0.2681
     19 N          64.6170   91.9587   13.1811 N.am    1  UNL1       -0.2681
     20 H          65.4183   94.6058   12.9160 H       1  UNL1        0.1564
     21 H          64.4900   92.4479   14.0260 H       1  UNL1        0.1564
     22 C          66.1061   94.8229   10.8725 C.ar    1  UNL1        0.0516
     23 C          67.2342   94.2073   10.0991 C.ar    1  UNL1        0.0147
     24 C          67.7951   94.9135    8.9005 C.ar    1  UNL1        0.0013
     25 C          67.2278   96.2354    8.4753 C.ar    1  UNL1        0.0001
     26 C          66.0996   96.8511    9.2488 C.ar    1  UNL1        0.0013
     27 C          65.5387   96.1448   10.4474 C.ar    1  UNL1        0.0147
@<TRIPOS>BOND
     1    16    17    2
     2    17    18   am
     3    18    22    1
     4    22    23   ar
     5    23    24   ar
     6    24    25   ar
     7    25    26   ar
     8    26    27   ar
     9    17    19   am
    10    19     1    1
    11     1     2   ar
    12     2     3   ar
    13     3     4   ar
    14     4     7    1
    15     7     8    2
    16     8     9    1
    17     9    10    2
    18    10    11    1
    19    11    12    2
    20    12    13    1
    21    13    14    2
    22    14    15    1
    23     4     5   ar
    24     5     6   ar
    25    27    22   ar
    26     6     1   ar
    27    15     7    1
    28    15    11    1
    29    18    20    1
    30    19    21    1
@<TRIPOS>MOLECULE
*****
 27 30 0 0 0
SMALL
GASTEIGER

@<TRIPOS>ATOM
      1 C          60.5172   86.6825    9.3946 C.ar    1  UNL1        0.0516
      2 C          61.5659   85.6132    9.3102 C.ar    1  UNL1        0.0147
      3 C          62.4212   85.3058   10.5034 C.ar    1  UNL1        0.0010
      4 C          62.2278   86.0675   11.7811 C.ar    1  UNL1       -0.0014
      5 C          61.1791   87.1366   11.8656 C.ar    1  UNL1        0.0010
      6 C          60.3238   87.4441   10.6722 C.ar    1  UNL1        0.0147
      7 C          63.0831   85.7599   12.9744 C.2     1  UNL1        0.0158
      8 C          63.8629   86.8546   13.6404 C.2     1  UNL1        0.0487
      9 C          64.7181   86.5472   14.8336 C.2     1  UNL1        0.2355
     10 N          64.7937   85.1449   15.3609 N.2     1  UNL1       -0.0325
     11 C          64.0140   84.0502   14.6949 C.2     1  UNL1        0.3799
     12 N          63.8917   82.5841   14.9875 N.2     1  UNL1       -0.0106
     13 C          62.9607   81.9855   13.9751 C.2     1  UNL1        0.3351
     14 N          62.5077   83.0816   13.0568 N.2     1  UNL1       -0.2103
     15 C          63.1587   84.3577   13.5017 C.3     1  UNL1        0.2404
     16 O          60.6606   89.3864    8.1030 O.2     1  UNL1       -0.2522
     17 C          59.7336   88.3420    7.5555 C.2     1  UNL1        0.3082
     18 N          58.8783   88.6494    6.3623 N.am    1  UNL1       -0.2681
     19 N          59.6619   86.9900    8.2014 N.am    1  UNL1       -0.2681
     20 H          58.2699   87.9639    6.0030 H       1  UNL1        0.1564
     21 H          59.0535   86.3044    7.8420 H       1  UNL1        0.1564
     22 C          58.9500   90.0015    5.7165 C.ar    1  UNL1        0.0516
     23 C          57.6985   90.8032    5.5141 C.ar    1  UNL1        0.0147
     24 C          57.7702   92.1551    4.8683 C.ar    1  UNL1        0.0013
     25 C          59.0933   92.7054    4.4248 C.ar    1  UNL1        0.0001
     26 C          60.3448   91.9036    4.6272 C.ar    1  UNL1        0.0013
     27 C          60.2731   90.5515    5.2730 C.ar    1  UNL1        0.0147
@<TRIPOS>BOND
     1    16    17    2
     2    17    18   am
     3    18    22    1
     4    22    23   ar
     5    23    24   ar
     6    24    25   ar
     7    25    26   ar
     8    26    27   ar
     9    17    19   am
    10    19     1    1
    11     1     2   ar
    12     2     3   ar
    13     3     4   ar
    14     4     7    1
    15     7     8    2
    16     8     9    1
    17     9    10    2
    18    10    11    1
    19    11    12    2
    20    12    13    1
    21    13    14    2
    22    14    15    1
    23     4     5   ar
    24     5     6   ar
    25    27    22   ar
    26     6     1   ar
    27    15     7    1
    28    15    11    1
    29    18    20    1
    30    19    21    1
@<TRIPOS>MOLECULE
*****
 27 30 0 0 0
SMALL
GASTEIGER

@<TRIPOS>ATOM
      1 C          62.3226   89.5776   12.8991 C.ar    1  UNL1        0.0516
      2 C          62.9753   88.3185   12.4105 C.ar    1  UNL1        0.0147
      3 C          62.4135   87.5944   11.2231 C.ar    1  UNL1        0.0010
      4 C          61.1989   88.1295   10.5241 C.ar    1  UNL1       -0.0014
      5 C          60.5461   89.3886   11.0126 C.ar    1  UNL1        0.0010
      6 C          61.1080   90.1126   12.2001 C.ar    1  UNL1        0.0147
      7 C          60.6371   87.4054    9.3366 C.2     1  UNL1        0.0158
      8 C          59.2489   87.7127    8.8586 C.2     1  UNL1        0.0487
      9 C          58.6871   86.9887    7.6712 C.2     1  UNL1        0.2355
     10 N          59.5135   85.9573    6.9617 N.2     1  UNL1       -0.0325
     11 C          60.9017   85.6499    7.4397 C.2     1  UNL1        0.3799
     12 N          61.9440   84.6911    6.9456 N.2     1  UNL1       -0.0106
     13 C          63.1500   84.8226    7.8278 C.2     1  UNL1        0.3351
     14 N          62.8531   85.8627    8.8670 N.2     1  UNL1       -0.2103
     15 C          61.4635   86.3740    8.6272 C.3     1  UNL1        0.2404
     16 O          65.1483   90.5837   12.8435 O.2     1  UNL1       -0.2522
     17 C          64.2973   90.8047   14.0588 C.2     1  UNL1        0.3082
     18 N          64.8590   91.5287   15.2462 N.am    1  UNL1       -0.2681
     19 N          62.8844   90.3016   14.0865 N.am    1  UNL1       -0.2681
     20 H          64.3005   91.6738   16.0438 H       1  UNL1        0.1564
     21 H          62.3258   90.4467   14.8841 H       1  UNL1        0.1564
     22 C          66.2720   92.0318   15.2184 C.ar    1  UNL1        0.0516
     23 C          66.7885   92.8793   16.3431 C.ar    1  UNL1        0.0147
     24 C          68.2013   93.3824   16.3154 C.ar    1  UNL1        0.0013
     25 C          69.0976   93.0380   15.1630 C.ar    1  UNL1        0.0001
     26 C          68.5811   92.1905   14.0382 C.ar    1  UNL1        0.0013
     27 C          67.1681   91.6874   14.0660 C.ar    1  UNL1        0.0147
@<TRIPOS>BOND
     1    16    17    2
     2    17    18   am
     3    18    22    1
     4    22    23   ar
     5    23    24   ar
     6    24    25   ar
     7    25    26   ar
     8    26    27   ar
     9    17    19   am
    10    19     1    1
    11     1     2   ar
    12     2     3   ar
    13     3     4   ar
    14     4     7    1
    15     7     8    2
    16     8     9    1
    17     9    10    2
    18    10    11    1
    19    11    12    2
    20    12    13    1
    21    13    14    2
    22    14    15    1
    23     4     5   ar
    24     5     6   ar
    25    27    22   ar
    26     6     1   ar
    27    15     7    1
    28    15    11    1
    29    18    20    1
    30    19    21    1
@<TRIPOS>MOLECULE
*****
 27 30 0 0 0
SMALL
GASTEIGER

@<TRIPOS>ATOM
      1 C          62.7591   87.2762   12.1155 C.ar    1  UNL1        0.0516
      2 C          63.4421   86.4082   13.1306 C.ar    1  UNL1        0.0147
      3 C          63.4867   84.9215   12.9377 C.ar    1  UNL1        0.0010
      4 C          62.8484   84.3024   11.7296 C.ar    1  UNL1       -0.0014
      5 C          62.1654   85.1702   10.7145 C.ar    1  UNL1        0.0010
      6 C          62.1208   86.6571   10.9075 C.ar    1  UNL1        0.0147
      7 C          62.8930   82.8155   11.5367 C.2     1  UNL1        0.0158
      8 C          63.4492   82.2402   10.2680 C.2     1  UNL1        0.0487
      9 C          63.4939   80.7534   10.0751 C.2     1  UNL1        0.2355
     10 N          62.9823   79.8417   11.1509 N.2     1  UNL1       -0.0325
     11 C          62.4260   80.4171   12.4195 C.2     1  UNL1        0.3799
     12 N          61.8535   79.7729   13.6473 N.2     1  UNL1       -0.0106
     13 C          61.4550   80.8617   14.5989 C.2     1  UNL1        0.3351
     14 N          61.7813   82.1787   13.9594 N.2     1  UNL1       -0.2103
     15 C          62.3814   81.9039   12.6125 C.3     1  UNL1        0.2404
     16 O          64.6814   88.6027   13.9983 O.2     1  UNL1       -0.2522
     17 C          63.6757   89.4263   13.2499 C.2     1  UNL1        0.3082
     18 N          63.6310   90.9131   13.4428 N.am    1  UNL1       -0.2681
     19 N          62.7145   88.7629   12.3084 N.am    1  UNL1       -0.2681
     20 H          62.9709   91.4536   12.9515 H       1  UNL1        0.1564
     21 H          62.0544   89.3035   11.8172 H       1  UNL1        0.1564
     22 C          64.5922   91.5765   14.3842 C.ar    1  UNL1        0.0516
     23 C          65.8648   92.1726   13.8598 C.ar    1  UNL1        0.0147
     24 C          66.8260   92.8360   14.8011 C.ar    1  UNL1        0.0013
     25 C          66.5145   92.9032   16.2669 C.ar    1  UNL1        0.0001
     26 C          65.2418   92.3070   16.7914 C.ar    1  UNL1        0.0013
     27 C          64.2806   91.6436   15.8499 C.ar    1  UNL1        0.0147
@<TRIPOS>BOND
     1    16    17    2
     2    17    18   am
     3    18    22    1
     4    22    23   ar
     5    23    24   ar
     6    24    25   ar
     7    25    26   ar
     8    26    27   ar
     9    17    19   am
    10    19     1    1
    11     1     2   ar
    12     2     3   ar
    13     3     4   ar
    14     4     7    1
    15     7     8    2
    16     8     9    1
    17     9    10    2
    18    10    11    1
    19    11    12    2
    20    12    13    1
    21    13    14    2
    22    14    15    1
    23     4     5   ar
    24     5     6   ar
    25    27    22   ar
    26     6     1   ar
    27    15     7    1
    28    15    11    1
    29    18    20    1
    30    19    21    1
