@<TRIPOS>MOLECULE
*****
 25 27 0 0 0
SMALL
GASTEIGER

@<TRIPOS>ATOM
      1 C          62.5832   90.7987   10.3004 C.3     1  UNL1        0.0522
      2 C          63.1052   90.2752   11.6055 C.ar    1  UNL1        0.0625
      3 C          63.6315   91.2268   12.6387 C.ar    1  UNL1        0.0522
      4 C          64.1534   90.7033   13.9439 C.ar    1  UNL1        0.1483
      5 C          64.1490   89.2282   14.2159 C.ar    1  UNL1        0.0612
      6 C          63.6226   88.2766   13.1828 C.ar    1  UNL1        0.1374
      7 N          63.1007   88.8001   11.8776 N.ar    1  UNL1       -0.2449
      8 C          63.6182   86.8014   13.4548 C.2     1  UNL1        0.2684
      9 O          64.4895   86.2357   14.5369 O.2     1  UNL1       -0.2681
     10 N          62.7425   85.8921   12.6449 N.am    1  UNL1       -0.2646
     11 H          62.1706   86.2634   11.9347 H       1  UNL1        0.1566
     12 C          62.7380   84.4169   12.9169 C.ar    1  UNL1        0.1346
     13 C          63.1020   83.4523   11.8275 C.ar    1  UNL1        0.0368
     14 C          63.0975   81.9772   12.0995 C.ar    1  UNL1        0.0341
     15 C          62.7291   81.4667   13.4610 C.ar    1  UNL1        0.1593
     16 F          62.7246   79.9916   13.7331 F       1  UNL1       -0.2025
     17 C          62.3651   82.4314   14.5505 C.ar    1  UNL1        0.1298
     18 N          62.3695   83.9065   14.2784 N.ar    1  UNL1       -0.2267
     19 O          64.6798   91.6549   14.9770 O.3     1  UNL1       -0.4502
     20 C          66.1268   92.0500   14.9648 C.ar    1  UNL1        0.1835
     21 C          66.7346   92.7086   16.1677 C.ar    1  UNL1        0.1396
     22 N          68.1816   93.1036   16.1555 N.ar    1  UNL1       -0.2192
     23 C          69.0208   92.8400   14.9404 C.ar    1  UNL1        0.1991
     24 N          68.4130   92.1815   13.7376 N.ar    1  UNL1       -0.2192
     25 C          66.9660   91.7864   13.7498 C.ar    1  UNL1        0.1396
@<TRIPOS>BOND
     1     1     2    1
     2     2     3   ar
     3     3     4   ar
     4     4    19    1
     5    19    20    1
     6    20    21   ar
     7    21    22   ar
     8    22    23   ar
     9    23    24   ar
    10    24    25   ar
    11     4     5   ar
    12     5     6   ar
    13     6     8    1
    14     8     9    2
    15     8    10   am
    16    10    12    1
    17    12    13   ar
    18    13    14   ar
    19    14    15   ar
    20    15    16    1
    21    15    17   ar
    22    17    18   ar
    23     6     7   ar
    24     7     2   ar
    25    25    20   ar
    26    18    12   ar
    27    10    11    1
@<TRIPOS>MOLECULE
*****
 25 27 0 0 0
SMALL
GASTEIGER

@<TRIPOS>ATOM
      1 C          62.7760   80.4923   12.6973 C.3     1  UNL1        0.0522
      2 C          62.9302   81.9810   12.7969 C.ar    1  UNL1        0.0625
      3 C          63.5572   82.5902   14.0159 C.ar    1  UNL1        0.0522
      4 C          63.7114   84.0789   14.1155 C.ar    1  UNL1        0.1483
      5 C          63.2387   84.9584   12.9962 C.ar    1  UNL1        0.0612
      6 C          62.6118   84.3493   11.7773 C.ar    1  UNL1        0.1374
      7 N          62.4575   82.8606   11.6776 N.ar    1  UNL1       -0.2449
      8 C          62.1390   85.2289   10.6579 C.2     1  UNL1        0.2684
      9 O          62.8290   85.1847    9.3268 O.2     1  UNL1       -0.2681
     10 N          60.9764   86.1526   10.8698 N.am    1  UNL1       -0.2646
     11 H          60.5235   86.1816   11.7435 H       1  UNL1        0.1566
     12 C          60.5036   87.0322    9.7504 C.ar    1  UNL1        0.1346
     13 C          60.7807   88.5059    9.7863 C.ar    1  UNL1        0.0368
     14 C          60.3079   89.3854    8.6670 C.ar    1  UNL1        0.0341
     15 C          59.5581   88.7912    7.5117 C.ar    1  UNL1        0.1593
     16 F          59.0854   89.6708    6.3923 F       1  UNL1       -0.2025
     17 C          59.2810   87.3175    7.4758 C.ar    1  UNL1        0.1298
     18 N          59.7538   86.4380    8.5951 N.ar    1  UNL1       -0.2267
     19 O          64.3384   84.6880   15.3345 O.3     1  UNL1       -0.4502
     20 C          63.9385   86.0650   15.7750 C.ar    1  UNL1        0.1835
     21 C          63.1916   86.2534   17.0622 C.ar    1  UNL1        0.1396
     22 N          62.7917   87.6303   17.5026 N.ar    1  UNL1       -0.2192
     23 C          63.1387   88.8190   16.6559 C.ar    1  UNL1        0.1991
     24 N          63.8856   88.6306   15.3689 N.ar    1  UNL1       -0.2192
     25 C          64.2855   87.2536   14.9284 C.ar    1  UNL1        0.1396
@<TRIPOS>BOND
     1     1     2    1
     2     2     3   ar
     3     3     4   ar
     4     4    19    1
     5    19    20    1
     6    20    21   ar
     7    21    22   ar
     8    22    23   ar
     9    23    24   ar
    10    24    25   ar
    11     4     5   ar
    12     5     6   ar
    13     6     8    1
    14     8     9    2
    15     8    10   am
    16    10    12    1
    17    12    13   ar
    18    13    14   ar
    19    14    15   ar
    20    15    16    1
    21    15    17   ar
    22    17    18   ar
    23     6     7   ar
    24     7     2   ar
    25    25    20   ar
    26    18    12   ar
    27    10    11    1
@<TRIPOS>MOLECULE
*****
 25 27 0 0 0
SMALL
GASTEIGER

@<TRIPOS>ATOM
      1 C          63.2087   89.5677   16.6931 C.3     1  UNL1        0.0522
      2 C          63.5677   90.0807   15.3301 C.ar    1  UNL1        0.0625
      3 C          64.5080   91.2408   15.1889 C.ar    1  UNL1        0.0522
      4 C          64.8669   91.7538   13.8258 C.ar    1  UNL1        0.1483
      5 C          64.2857   91.1066   12.6039 C.ar    1  UNL1        0.0612
      6 C          63.3454   89.9464   12.7450 C.ar    1  UNL1        0.1374
      7 N          62.9864   89.4335   14.1081 N.ar    1  UNL1       -0.2449
      8 C          62.7641   89.2992   11.5230 C.2     1  UNL1        0.2684
      9 O          62.6854   90.0637   10.2349 O.2     1  UNL1       -0.2681
     10 N          62.2614   87.8875   11.5892 N.am    1  UNL1       -0.2646
     11 H          62.3131   87.3857   12.4347 H       1  UNL1        0.1566
     12 C          61.6801   87.2402   10.3672 C.ar    1  UNL1        0.1346
     13 C          62.5221   86.3212    9.5328 C.ar    1  UNL1        0.0368
     14 C          61.9408   85.6740    8.3109 C.ar    1  UNL1        0.0341
     15 C          60.5174   85.9458    7.9234 C.ar    1  UNL1        0.1593
     16 F          59.9361   85.2986    6.7014 F       1  UNL1       -0.2025
     17 C          59.6754   86.8649    8.7578 C.ar    1  UNL1        0.1298
     18 N          60.2567   87.5121    9.9797 N.ar    1  UNL1       -0.2267
     19 O          65.8072   92.9140   13.6847 O.3     1  UNL1       -0.4502
     20 C          66.4191   93.2255   12.3511 C.ar    1  UNL1        0.1835
     21 C          67.3733   92.2561   11.7188 C.ar    1  UNL1        0.1396
     22 N          67.9852   92.5676   10.3852 N.ar    1  UNL1       -0.2192
     23 C          67.6428   93.8487    9.6839 C.ar    1  UNL1        0.1991
     24 N          66.6886   94.8181   10.3161 N.ar    1  UNL1       -0.2192
     25 C          66.0768   94.5065   11.6498 C.ar    1  UNL1        0.1396
@<TRIPOS>BOND
     1     1     2    1
     2     2     3   ar
     3     3     4   ar
     4     4    19    1
     5    19    20    1
     6    20    21   ar
     7    21    22   ar
     8    22    23   ar
     9    23    24   ar
    10    24    25   ar
    11     4     5   ar
    12     5     6   ar
    13     6     8    1
    14     8     9    2
    15     8    10   am
    16    10    12    1
    17    12    13   ar
    18    13    14   ar
    19    14    15   ar
    20    15    16    1
    21    15    17   ar
    22    17    18   ar
    23     6     7   ar
    24     7     2   ar
    25    25    20   ar
    26    18    12   ar
    27    10    11    1
@<TRIPOS>MOLECULE
*****
 25 27 0 0 0
SMALL
GASTEIGER

@<TRIPOS>ATOM
      1 C          58.8504   90.8683   11.6925 C.3     1  UNL1        0.0522
      2 C          60.1578   90.2177   11.3504 C.ar    1  UNL1        0.0625
      3 C          61.3227   91.0573   10.9167 C.ar    1  UNL1        0.0522
      4 C          62.6301   90.4066   10.5745 C.ar    1  UNL1        0.1483
      5 C          62.7728   88.9163   10.6660 C.ar    1  UNL1        0.0612
      6 C          61.6080   88.0766   11.0996 C.ar    1  UNL1        0.1374
      7 N          60.3005   88.7273   11.4418 N.ar    1  UNL1       -0.2449
      8 C          61.7506   86.5862   11.1911 C.2     1  UNL1        0.2684
      9 O          61.0373   85.7029   10.2108 O.2     1  UNL1       -0.2681
     10 N          62.6066   85.9790   12.2629 N.am    1  UNL1       -0.2646
     11 H          63.0748   86.5588   12.9063 H       1  UNL1        0.1566
     12 C          62.7492   84.4886   12.3544 C.ar    1  UNL1        0.1346
     13 C          63.2379   83.7078   11.1705 C.ar    1  UNL1        0.0368
     14 C          63.3805   82.2175   11.2620 C.ar    1  UNL1        0.0341
     15 C          63.0344   81.5079   12.5374 C.ar    1  UNL1        0.1593
     16 F          63.1771   80.0174   12.6289 F       1  UNL1       -0.2025
     17 C          62.5458   82.2886   13.7213 C.ar    1  UNL1        0.1298
     18 N          62.4032   83.7790   13.6298 N.ar    1  UNL1       -0.2267
     19 O          63.7950   91.2464   10.1408 O.3     1  UNL1       -0.4502
     20 C          64.6521   91.9269   11.1666 C.ar    1  UNL1        0.1835
     21 C          65.7153   92.8927   10.7342 C.ar    1  UNL1        0.1396
     22 N          66.5725   93.5732   11.7600 N.ar    1  UNL1       -0.2192
     23 C          66.3663   93.2879   13.2182 C.ar    1  UNL1        0.1991
     24 N          65.3031   92.3222   13.6505 N.ar    1  UNL1       -0.2192
     25 C          64.4460   91.6417   12.6247 C.ar    1  UNL1        0.1396
@<TRIPOS>BOND
     1     1     2    1
     2     2     3   ar
     3     3     4   ar
     4     4    19    1
     5    19    20    1
     6    20    21   ar
     7    21    22   ar
     8    22    23   ar
     9    23    24   ar
    10    24    25   ar
    11     4     5   ar
    12     5     6   ar
    13     6     8    1
    14     8     9    2
    15     8    10   am
    16    10    12    1
    17    12    13   ar
    18    13    14   ar
    19    14    15   ar
    20    15    16    1
    21    15    17   ar
    22    17    18   ar
    23     6     7   ar
    24     7     2   ar
    25    25    20   ar
    26    18    12   ar
    27    10    11    1
@<TRIPOS>MOLECULE
*****
 25 27 0 0 0
SMALL
GASTEIGER

@<TRIPOS>ATOM
      1 C          59.0424   90.4701   11.5995 C.3     1  UNL1        0.0522
      2 C          60.3072   89.6648   11.6434 C.ar    1  UNL1        0.0625
      3 C          60.4052   88.3799   10.8757 C.ar    1  UNL1        0.0522
      4 C          61.6699   87.5746   10.9196 C.ar    1  UNL1        0.1483
      5 C          62.8366   88.0541   11.7312 C.ar    1  UNL1        0.0612
      6 C          62.7386   89.3390   12.4989 C.ar    1  UNL1        0.1374
      7 N          61.4739   90.1444   12.4550 N.ar    1  UNL1       -0.2449
      8 C          63.9054   89.8187   13.3106 C.2     1  UNL1        0.2684
      9 O          64.5701   88.8944   14.2873 O.2     1  UNL1       -0.2681
     10 N          64.4074   91.2224   13.1455 N.am    1  UNL1       -0.2646
     11 H          63.9711   91.8290   12.5044 H       1  UNL1        0.1566
     12 C          65.5742   91.7021   13.9571 C.ar    1  UNL1        0.1346
     13 C          66.9507   91.7072   13.3613 C.ar    1  UNL1        0.0368
     14 C          68.1174   92.1868   14.1730 C.ar    1  UNL1        0.0341
     15 C          67.9075   92.6613   15.5804 C.ar    1  UNL1        0.1593
     16 F          69.0743   93.1409   16.3920 F       1  UNL1       -0.2025
     17 C          66.5309   92.6562   16.1761 C.ar    1  UNL1        0.1298
     18 N          65.3643   92.1766   15.3645 N.ar    1  UNL1       -0.2267
     19 O          61.7678   86.2896   10.1518 O.3     1  UNL1       -0.4502
     20 C          62.5822   85.1525   10.6937 C.ar    1  UNL1        0.1835
     21 C          63.4600   84.3544    9.7757 C.ar    1  UNL1        0.1396
     22 N          64.2744   83.2172   10.3175 N.ar    1  UNL1       -0.2192
     23 C          64.2110   82.8781   11.7773 C.ar    1  UNL1        0.1991
     24 N          63.3333   83.6762   12.6953 N.ar    1  UNL1       -0.2192
     25 C          62.5189   84.8133   12.1534 C.ar    1  UNL1        0.1396
@<TRIPOS>BOND
     1     1     2    1
     2     2     3   ar
     3     3     4   ar
     4     4    19    1
     5    19    20    1
     6    20    21   ar
     7    21    22   ar
     8    22    23   ar
     9    23    24   ar
    10    24    25   ar
    11     4     5   ar
    12     5     6   ar
    13     6     8    1
    14     8     9    2
    15     8    10   am
    16    10    12    1
    17    12    13   ar
    18    13    14   ar
    19    14    15   ar
    20    15    16    1
    21    15    17   ar
    22    17    18   ar
    23     6     7   ar
    24     7     2   ar
    25    25    20   ar
    26    18    12   ar
    27    10    11    1
@<TRIPOS>MOLECULE
*****
 25 27 0 0 0
SMALL
GASTEIGER

@<TRIPOS>ATOM
      1 C          67.0064   92.7048   16.2684 C.3     1  UNL1        0.0522
      2 C          66.2353   92.2396   15.0689 C.ar    1  UNL1        0.0625
      3 C          66.1552   93.1054   13.8467 C.ar    1  UNL1        0.0522
      4 C          65.3841   92.6401   12.6471 C.ar    1  UNL1        0.1483
      5 C          64.6932   91.3090   12.6697 C.ar    1  UNL1        0.0612
      6 C          64.7733   90.4431   13.8919 C.ar    1  UNL1        0.1374
      7 N          65.5444   90.9084   15.0915 N.ar    1  UNL1       -0.2449
      8 C          64.0823   89.1119   13.9146 C.2     1  UNL1        0.2684
      9 O          62.8539   88.8903   13.0829 O.2     1  UNL1       -0.2681
     10 N          64.6198   88.0024   14.7690 N.am    1  UNL1       -0.2646
     11 H          65.4260   88.1478   15.3149 H       1  UNL1        0.1566
     12 C          63.9288   86.6711   14.7917 C.ar    1  UNL1        0.1346
     13 C          63.8970   85.8215   13.5560 C.ar    1  UNL1        0.0368
     14 C          63.2061   84.4903   13.5787 C.ar    1  UNL1        0.0341
     15 C          62.5469   84.0088   14.8371 C.ar    1  UNL1        0.1593
     16 F          61.8559   82.6776   14.8598 F       1  UNL1       -0.2025
     17 C          62.5786   84.8585   16.0728 C.ar    1  UNL1        0.1298
     18 N          63.2696   86.1896   16.0501 N.ar    1  UNL1       -0.2267
     19 O          65.3040   93.5061   11.4249 O.3     1  UNL1       -0.4502
     20 C          66.3963   93.4568   10.3979 C.ar    1  UNL1        0.1835
     21 C          67.3324   92.2855   10.3544 C.ar    1  UNL1        0.1396
     22 N          68.4246   92.2362    9.3274 N.ar    1  UNL1       -0.2192
     23 C          68.5807   93.3581    8.3440 C.ar    1  UNL1        0.1991
     24 N          67.6445   94.5293    8.3876 N.ar    1  UNL1       -0.2192
     25 C          66.5523   94.5786    9.4145 C.ar    1  UNL1        0.1396
@<TRIPOS>BOND
     1     1     2    1
     2     2     3   ar
     3     3     4   ar
     4     4    19    1
     5    19    20    1
     6    20    21   ar
     7    21    22   ar
     8    22    23   ar
     9    23    24   ar
    10    24    25   ar
    11     4     5   ar
    12     5     6   ar
    13     6     8    1
    14     8     9    2
    15     8    10   am
    16    10    12    1
    17    12    13   ar
    18    13    14   ar
    19    14    15   ar
    20    15    16    1
    21    15    17   ar
    22    17    18   ar
    23     6     7   ar
    24     7     2   ar
    25    25    20   ar
    26    18    12   ar
    27    10    11    1
@<TRIPOS>MOLECULE
*****
 25 27 0 0 0
SMALL
GASTEIGER

@<TRIPOS>ATOM
      1 C          59.1452   88.3552    7.6314 C.3     1  UNL1        0.0522
      2 C          60.2728   87.9483    8.5331 C.ar    1  UNL1        0.0625
      3 C          60.9417   86.6191    8.3444 C.ar    1  UNL1        0.0522
      4 C          62.0694   86.2122    9.2461 C.ar    1  UNL1        0.1483
      5 C          62.5281   87.1347   10.3363 C.ar    1  UNL1        0.0612
      6 C          61.8592   88.4639   10.5250 C.ar    1  UNL1        0.1374
      7 N          60.7316   88.8707    9.6233 N.ar    1  UNL1       -0.2449
      8 C          62.3179   89.3864   11.6153 C.2     1  UNL1        0.2684
      9 O          61.9307   90.8352   11.5842 O.2     1  UNL1       -0.2681
     10 N          63.1637   88.8600   12.7366 N.am    1  UNL1       -0.2646
     11 H          63.4179   87.9091   12.7570 H       1  UNL1        0.1566
     12 C          63.6224   89.7825   13.8269 C.ar    1  UNL1        0.1346
     13 C          64.7599   90.7286   13.5798 C.ar    1  UNL1        0.0368
     14 C          65.2186   91.6510   14.6700 C.ar    1  UNL1        0.0341
     15 C          64.5397   91.6274   16.0074 C.ar    1  UNL1        0.1593
     16 F          64.9984   92.5499   17.0977 F       1  UNL1       -0.2025
     17 C          63.4023   90.6813   16.2546 C.ar    1  UNL1        0.1298
     18 N          62.9436   89.7589   15.1643 N.ar    1  UNL1       -0.2267
     19 O          62.7383   84.8829    9.0574 O.3     1  UNL1       -0.4502
     20 C          63.1797   84.0893   10.2513 C.ar    1  UNL1        0.1835
     21 C          64.2821   83.0811   10.1158 C.ar    1  UNL1        0.1396
     22 N          64.7235   82.2874   11.3097 N.ar    1  UNL1       -0.2192
     23 C          64.0625   82.5021   12.6390 C.ar    1  UNL1        0.1991
     24 N          62.9601   83.5102   12.7745 N.ar    1  UNL1       -0.2192
     25 C          62.5187   84.3039   11.5806 C.ar    1  UNL1        0.1396
@<TRIPOS>BOND
     1     1     2    1
     2     2     3   ar
     3     3     4   ar
     4     4    19    1
     5    19    20    1
     6    20    21   ar
     7    21    22   ar
     8    22    23   ar
     9    23    24   ar
    10    24    25   ar
    11     4     5   ar
    12     5     6   ar
    13     6     8    1
    14     8     9    2
    15     8    10   am
    16    10    12    1
    17    12    13   ar
    18    13    14   ar
    19    14    15   ar
    20    15    16    1
    21    15    17   ar
    22    17    18   ar
    23     6     7   ar
    24     7     2   ar
    25    25    20   ar
    26    18    12   ar
    27    10    11    1
@<TRIPOS>MOLECULE
*****
 25 27 0 0 0
SMALL
GASTEIGER

@<TRIPOS>ATOM
      1 C          60.7689   89.7224    9.1465 C.3     1  UNL1        0.0522
      2 C          61.6721   89.5939   10.3371 C.ar    1  UNL1        0.0625
      3 C          62.2780   90.8192   10.9547 C.ar    1  UNL1        0.0522
      4 C          63.1812   90.6907   12.1453 C.ar    1  UNL1        0.1483
      5 C          63.4786   89.3368   12.7185 C.ar    1  UNL1        0.0612
      6 C          62.8727   88.1115   12.1009 C.ar    1  UNL1        0.1374
      7 N          61.9695   88.2400   10.9103 N.ar    1  UNL1       -0.2449
      8 C          63.1700   86.7575   12.6741 C.2     1  UNL1        0.2684
      9 O          63.9324   86.6385   13.9604 O.2     1  UNL1       -0.2681
     10 N          62.7049   85.5226   11.9609 N.am    1  UNL1       -0.2646
     11 H          62.2045   85.6007   11.1167 H       1  UNL1        0.1566
     12 C          63.0023   84.1686   12.5340 C.ar    1  UNL1        0.1346
     13 C          62.3318   83.7267   13.8010 C.ar    1  UNL1        0.0368
     14 C          62.6291   82.3728   14.3740 C.ar    1  UNL1        0.0341
     15 C          63.5970   81.4608   13.6802 C.ar    1  UNL1        0.1593
     16 F          63.8943   80.1068   14.2533 F       1  UNL1       -0.2025
     17 C          64.2675   81.9026   12.4132 C.ar    1  UNL1        0.1298
     18 N          63.9701   83.2565   11.8402 N.ar    1  UNL1       -0.2267
     19 O          63.7871   91.9162   12.7629 O.3     1  UNL1       -0.4502
     20 C          65.2392   91.9269   13.1386 C.ar    1  UNL1        0.1835
     21 C          66.2685   92.3715   12.1421 C.ar    1  UNL1        0.1396
     22 N          67.7207   92.3822   12.5178 N.ar    1  UNL1       -0.2192
     23 C          68.1435   91.9483   13.8901 C.ar    1  UNL1        0.1991
     24 N          67.1143   91.5038   14.8865 N.ar    1  UNL1       -0.2192
     25 C          65.6621   91.4930   14.5108 C.ar    1  UNL1        0.1396
@<TRIPOS>BOND
     1     1     2    1
     2     2     3   ar
     3     3     4   ar
     4     4    19    1
     5    19    20    1
     6    20    21   ar
     7    21    22   ar
     8    22    23   ar
     9    23    24   ar
    10    24    25   ar
    11     4     5   ar
    12     5     6   ar
    13     6     8    1
    14     8     9    2
    15     8    10   am
    16    10    12    1
    17    12    13   ar
    18    13    14   ar
    19    14    15   ar
    20    15    16    1
    21    15    17   ar
    22    17    18   ar
    23     6     7   ar
    24     7     2   ar
    25    25    20   ar
    26    18    12   ar
    27    10    11    1
@<TRIPOS>MOLECULE
*****
 25 27 0 0 0
SMALL
GASTEIGER

@<TRIPOS>ATOM
      1 C          59.7955   89.0700    7.9616 C.3     1  UNL1        0.0522
      2 C          60.6409   88.7410    9.1563 C.ar    1  UNL1        0.0625
      3 C          60.5513   87.3833    9.7874 C.ar    1  UNL1        0.0522
      4 C          61.3967   87.0543   10.9821 C.ar    1  UNL1        0.1483
      5 C          62.3316   88.0830   11.5455 C.ar    1  UNL1        0.0612
      6 C          62.4212   89.4408   10.9143 C.ar    1  UNL1        0.1374
      7 N          61.5758   89.7698    9.7197 N.ar    1  UNL1       -0.2449
      8 C          63.3562   90.4696   11.4778 C.2     1  UNL1        0.2684
      9 O          63.7432   91.6622   10.6545 O.2     1  UNL1       -0.2681
     10 N          63.9041   90.3058   12.8645 N.am    1  UNL1       -0.2646
     11 H          63.6500   89.5230   13.4048 H       1  UNL1        0.1566
     12 C          64.8390   91.3346   13.4279 C.ar    1  UNL1        0.1346
     13 C          65.2027   91.3008   14.8827 C.ar    1  UNL1        0.0368
     14 C          66.1377   92.3296   15.4461 C.ar    1  UNL1        0.0341
     15 C          66.7089   93.3922   14.5547 C.ar    1  UNL1        0.1593
     16 F          67.6439   94.4210   15.1181 F       1  UNL1       -0.2025
     17 C          66.3452   93.4260   13.0998 C.ar    1  UNL1        0.1298
     18 N          65.4103   92.3972   12.5365 N.ar    1  UNL1       -0.2267
     19 O          61.3070   85.6964   11.6132 O.3     1  UNL1       -0.4502
     20 C          62.4048   84.6966   11.4006 C.ar    1  UNL1        0.1835
     21 C          62.9323   83.9039   12.5597 C.ar    1  UNL1        0.1396
     22 N          64.0300   82.9041   12.3471 N.ar    1  UNL1       -0.2192
     23 C          64.6003   82.6969   10.9752 C.ar    1  UNL1        0.1991
     24 N          64.0729   83.4895    9.8161 N.ar    1  UNL1       -0.2192
     25 C          62.9751   84.4894   10.0288 C.ar    1  UNL1        0.1396
@<TRIPOS>BOND
     1     1     2    1
     2     2     3   ar
     3     3     4   ar
     4     4    19    1
     5    19    20    1
     6    20    21   ar
     7    21    22   ar
     8    22    23   ar
     9    23    24   ar
    10    24    25   ar
    11     4     5   ar
    12     5     6   ar
    13     6     8    1
    14     8     9    2
    15     8    10   am
    16    10    12    1
    17    12    13   ar
    18    13    14   ar
    19    14    15   ar
    20    15    16    1
    21    15    17   ar
    22    17    18   ar
    23     6     7   ar
    24     7     2   ar
    25    25    20   ar
    26    18    12   ar
    27    10    11    1
