@<TRIPOS>MOLECULE
*****
 38 42 0 0 0
SMALL
GASTEIGER

@<TRIPOS>ATOM
      1 N          63.0749   89.6638   15.6272 N.ar    1  UNL1       -0.1994
      2 N          64.3281   90.4593   15.4113 N.ar    1  UNL1       -0.1460
      3 C          64.3251   90.9541   13.9953 C.ar    1  UNL1        0.1860
      4 C          65.3030   91.7872   13.2211 C.ar    1  UNL1        0.0422
      5 C          65.0258   92.1306   11.7874 C.ar    1  UNL1        0.0606
      6 C          63.7707   91.6409   11.1280 C.ar    1  UNL1        0.2756
      7 O          63.4935   91.9843    9.6945 O.2     1  UNL1       -0.2655
      8 N          62.7927   90.8077   11.9023 N.ar    1  UNL1       -0.2229
      9 N          63.0699   90.4643   13.3359 N.ar    1  UNL1       -0.1765
     10 C          62.2973   89.6669   14.3445 C.ar    1  UNL1        0.3669
     11 O          60.9786   88.9912   14.1113 O.2     1  UNL1       -0.2429
     12 C          66.5581   92.2770   13.8804 C.ar    1  UNL1        0.0032
     13 C          66.4921   93.3852   14.8891 C.ar    1  UNL1        0.0010
     14 C          67.7472   93.8749   15.5485 C.ar    1  UNL1        0.0114
     15 C          69.0684   93.2565   15.1991 C.ar    1  UNL1        0.0577
     16 CL         70.3235   93.7463   15.8585 Cl      1  UNL1       -0.0822
     17 C          69.1345   92.1483   14.1904 C.ar    1  UNL1        0.0114
     18 C          67.8793   91.6585   13.5310 C.ar    1  UNL1        0.0010
     19 C          66.0037   92.9638   11.0132 C.ar    1  UNL1        0.0078
     20 C          67.0709   92.3003   10.1941 C.ar    1  UNL1        0.0208
     21 C          68.0489   93.1335    9.4199 C.ar    1  UNL1        0.0989
     22 N          67.9596   94.6302    9.4647 N.ar    1  UNL1       -0.2423
     23 C          66.8924   95.2937   10.2838 C.ar    1  UNL1        0.0989
     24 C          65.9145   94.4604   11.0581 C.ar    1  UNL1        0.0208
     25 C          62.9997   87.5372   17.1177 C.3     1  UNL1        0.0286
     26 C          62.6703   88.9845   16.9019 C.3     1  UNL1        0.1324
     27 C          61.5376   90.3179   11.2430 C.3     1  UNL1        0.1568
     28 C          61.5764   89.1010   10.3668 C.ar    1  UNL1        0.0158
     29 C          62.5430   87.9932   10.6642 C.ar    1  UNL1        0.0003
     30 C          62.5818   86.7764    9.7880 C.ar    1  UNL1        0.0228
     31 C          61.6540   86.6673    8.6144 C.ar    1  UNL1        0.1522
     32 N          60.6874   87.7751    8.3170 N.ar    1  UNL1       -0.2460
     33 C          60.6486   88.9919    9.1932 C.ar    1  UNL1        0.0572
     34 C          59.6820   90.0998    8.8957 C.3     1  UNL1        0.0518
     35 C          61.6929   85.4504    7.7382 C.3     1  UNL1        0.4348
     36 F          61.7317   84.2335    6.8621 F       1  UNL1       -0.1644
     37 F          60.2248   85.5979    7.4681 F       1  UNL1       -0.1644
     38 F          63.1609   85.3028    8.0083 F       1  UNL1       -0.1644
@<TRIPOS>BOND
     1    25    26    1
     2    26     1    1
     3     1     2   ar
     4     2     3   ar
     5     3     4   ar
     6     4    12    1
     7    12    13   ar
     8    13    14   ar
     9    14    15   ar
    10    15    16    1
    11    15    17   ar
    12    17    18   ar
    13     4     5   ar
    14     5    19    1
    15    19    20   ar
    16    20    21   ar
    17    21    22   ar
    18    22    23   ar
    19    23    24   ar
    20     5     6   ar
    21     6     7    2
    22     6     8   ar
    23     8    27    1
    24    27    28    1
    25    28    29   ar
    26    29    30   ar
    27    30    31   ar
    28    31    35    1
    29    35    36    1
    30    35    37    1
    31    35    38    1
    32    31    32   ar
    33    32    33   ar
    34    33    34    1
    35     8     9   ar
    36     9    10   ar
    37    10    11    2
    38    10     1   ar
    39     9     3   ar
    40    18    12   ar
    41    24    19   ar
    42    33    28   ar
@<TRIPOS>MOLECULE
*****
 38 42 0 0 0
SMALL
GASTEIGER

@<TRIPOS>ATOM
      1 N          61.9179   90.4845   10.4820 N.ar    1  UNL1       -0.1994
      2 N          63.1246   91.3703   10.3861 N.ar    1  UNL1       -0.1460
      3 C          63.8860   91.2575   11.6735 C.ar    1  UNL1        0.1860
      4 C          65.1545   91.9014   12.1491 C.ar    1  UNL1        0.0422
      5 C          65.6870   91.5899   13.5165 C.ar    1  UNL1        0.0606
      6 C          64.9508   90.6344   14.4082 C.ar    1  UNL1        0.2756
      7 O          65.4831   90.3228   15.7754 O.2     1  UNL1       -0.2655
      8 N          63.6822   89.9905   13.9325 N.ar    1  UNL1       -0.2229
      9 N          63.1499   90.3020   12.5652 N.ar    1  UNL1       -0.1765
     10 C          61.9335   89.8243   11.8288 C.ar    1  UNL1        0.3669
     11 O          60.9121   88.8563   12.3481 O.2     1  UNL1       -0.2429
     12 C          65.8907   92.8569   11.2574 C.ar    1  UNL1        0.0032
     13 C          66.8657   92.3367   10.2432 C.ar    1  UNL1        0.0010
     14 C          67.6019   93.2921    9.3515 C.ar    1  UNL1        0.0114
     15 C          67.3630   94.7679    9.4740 C.ar    1  UNL1        0.0577
     16 CL         68.0992   95.7234    8.5823 Cl      1  UNL1       -0.0822
     17 C          66.3880   95.2882   10.4883 C.ar    1  UNL1        0.0114
     18 C          65.6518   94.3328   11.3800 C.ar    1  UNL1        0.0010
     19 C          66.9555   92.2338   13.9920 C.ar    1  UNL1        0.0078
     20 C          66.8978   93.3906   14.9452 C.ar    1  UNL1        0.0208
     21 C          68.1663   94.0345   15.4208 C.ar    1  UNL1        0.0989
     22 N          69.4926   93.5216   14.9432 N.ar    1  UNL1       -0.2423
     23 C          69.5502   92.3648   13.9901 C.ar    1  UNL1        0.0989
     24 C          68.2816   91.7209   13.5145 C.ar    1  UNL1        0.0208
     25 C          60.5065   88.9091    8.9734 C.3     1  UNL1        0.0286
     26 C          60.8782   90.2926    9.4180 C.3     1  UNL1        0.1324
     27 C          62.9461   89.0350   14.8242 C.3     1  UNL1        0.1568
     28 C          63.2123   87.5619   14.7272 C.ar    1  UNL1        0.0158
     29 C          63.4709   86.9329   13.3903 C.ar    1  UNL1        0.0003
     30 C          63.7372   85.4600   13.2934 C.ar    1  UNL1        0.0228
     31 C          63.7448   84.6160   14.5334 C.ar    1  UNL1        0.1522
     32 N          63.4862   85.2450   15.8704 N.ar    1  UNL1       -0.2460
     33 C          63.2199   86.7180   15.9673 C.ar    1  UNL1        0.0572
     34 C          62.9613   87.3470   17.3043 C.3     1  UNL1        0.0518
     35 C          64.0111   83.1430   14.4365 C.3     1  UNL1        0.4348
     36 F          64.2773   81.6700   14.3395 F       1  UNL1       -0.1644
     37 F          64.9492   83.3878   13.2920 F       1  UNL1       -0.1644
     38 F          63.0730   82.8981   15.5810 F       1  UNL1       -0.1644
@<TRIPOS>BOND
     1    25    26    1
     2    26     1    1
     3     1     2   ar
     4     2     3   ar
     5     3     4   ar
     6     4    12    1
     7    12    13   ar
     8    13    14   ar
     9    14    15   ar
    10    15    16    1
    11    15    17   ar
    12    17    18   ar
    13     4     5   ar
    14     5    19    1
    15    19    20   ar
    16    20    21   ar
    17    21    22   ar
    18    22    23   ar
    19    23    24   ar
    20     5     6   ar
    21     6     7    2
    22     6     8   ar
    23     8    27    1
    24    27    28    1
    25    28    29   ar
    26    29    30   ar
    27    30    31   ar
    28    31    35    1
    29    35    36    1
    30    35    37    1
    31    35    38    1
    32    31    32   ar
    33    32    33   ar
    34    33    34    1
    35     8     9   ar
    36     9    10   ar
    37    10    11    2
    38    10     1   ar
    39     9     3   ar
    40    18    12   ar
    41    24    19   ar
    42    33    28   ar
@<TRIPOS>MOLECULE
*****
 38 42 0 0 0
SMALL
GASTEIGER

@<TRIPOS>ATOM
      1 N          63.7590   86.3650   15.4845 N.ar    1  UNL1       -0.1994
      2 N          63.5787   85.3352   14.4088 N.ar    1  UNL1       -0.1460
      3 C          63.1688   86.0444   13.1522 C.ar    1  UNL1        0.1860
      4 C          62.8526   85.5430   11.7744 C.ar    1  UNL1        0.0422
      5 C          62.4633   86.5097   10.6954 C.ar    1  UNL1        0.0606
      6 C          62.3902   87.9778   10.9945 C.ar    1  UNL1        0.2756
      7 O          62.0009   88.9445    9.9157 O.2     1  UNL1       -0.2655
      8 N          62.7064   88.4791   12.3725 N.ar    1  UNL1       -0.2229
      9 N          63.0957   87.5125   13.4513 N.ar    1  UNL1       -0.1765
     10 C          63.4604   87.7106   14.8927 C.ar    1  UNL1        0.3669
     11 O          63.5167   89.0238   15.6154 O.2     1  UNL1       -0.2429
     12 C          62.9257   84.0749   11.4753 C.ar    1  UNL1        0.0032
     13 C          63.8601   83.5710   10.4156 C.ar    1  UNL1        0.0010
     14 C          63.9332   82.1030   10.1166 C.ar    1  UNL1        0.0114
     15 C          63.0720   81.1388   10.8772 C.ar    1  UNL1        0.0577
     16 CL         63.1451   79.6708   10.5781 Cl      1  UNL1       -0.0822
     17 C          62.1375   81.6427   11.9369 C.ar    1  UNL1        0.0114
     18 C          62.0644   83.1108   12.2360 C.ar    1  UNL1        0.0010
     19 C          62.1471   86.0084    9.3175 C.ar    1  UNL1        0.0078
     20 C          63.2423   85.4685    8.4462 C.ar    1  UNL1        0.0208
     21 C          62.9261   84.9672    7.0683 C.ar    1  UNL1        0.0989
     22 N          61.5147   85.0056    6.5617 N.ar    1  UNL1       -0.2423
     23 C          60.4196   85.5454    7.4330 C.ar    1  UNL1        0.0989
     24 C          60.7358   86.0468    8.8110 C.ar    1  UNL1        0.0208
     25 C          63.1898   86.3214   18.0191 C.3     1  UNL1        0.0286
     26 C          64.1663   86.0963   16.9030 C.3     1  UNL1        0.1324
     27 C          62.6333   89.9472   12.6715 C.3     1  UNL1        0.1568
     28 C          63.6598   90.8808   12.1016 C.ar    1  UNL1        0.0158
     29 C          63.5613   91.3208   10.6710 C.ar    1  UNL1        0.0003
     30 C          64.5878   92.2543   10.1012 C.ar    1  UNL1        0.0228
     31 C          65.7129   92.7477   10.9619 C.ar    1  UNL1        0.1522
     32 N          65.8114   92.3077   12.3925 N.ar    1  UNL1       -0.2460
     33 C          64.7848   91.3742   12.9623 C.ar    1  UNL1        0.0572
     34 C          64.8833   90.9341   14.3930 C.3     1  UNL1        0.0518
     35 C          66.7394   93.6813   10.3919 C.3     1  UNL1        0.4348
     36 F          67.7659   94.6148    9.8220 F       1  UNL1       -0.1644
     37 F          67.5144   92.5090    9.8675 F       1  UNL1       -0.1644
     38 F          65.9645   94.8536   10.9164 F       1  UNL1       -0.1644
@<TRIPOS>BOND
     1    25    26    1
     2    26     1    1
     3     1     2   ar
     4     2     3   ar
     5     3     4   ar
     6     4    12    1
     7    12    13   ar
     8    13    14   ar
     9    14    15   ar
    10    15    16    1
    11    15    17   ar
    12    17    18   ar
    13     4     5   ar
    14     5    19    1
    15    19    20   ar
    16    20    21   ar
    17    21    22   ar
    18    22    23   ar
    19    23    24   ar
    20     5     6   ar
    21     6     7    2
    22     6     8   ar
    23     8    27    1
    24    27    28    1
    25    28    29   ar
    26    29    30   ar
    27    30    31   ar
    28    31    35    1
    29    35    36    1
    30    35    37    1
    31    35    38    1
    32    31    32   ar
    33    32    33   ar
    34    33    34    1
    35     8     9   ar
    36     9    10   ar
    37    10    11    2
    38    10     1   ar
    39     9     3   ar
    40    18    12   ar
    41    24    19   ar
    42    33    28   ar
@<TRIPOS>MOLECULE
*****
 38 42 0 0 0
SMALL
GASTEIGER

@<TRIPOS>ATOM
      1 N          63.6668   86.2515   15.5414 N.ar    1  UNL1       -0.1994
      2 N          63.4973   85.2294   14.4567 N.ar    1  UNL1       -0.1460
      3 C          63.1390   85.9512   13.1915 C.ar    1  UNL1        0.1860
      4 C          62.8534   85.4612   11.8029 C.ar    1  UNL1        0.0422
      5 C          62.5157   86.4394   10.7170 C.ar    1  UNL1        0.0606
      6 C          62.4638   87.9076   11.0197 C.ar    1  UNL1        0.2756
      7 O          62.1263   88.8858    9.9339 O.2     1  UNL1       -0.2655
      8 N          62.7495   88.3976   12.4084 N.ar    1  UNL1       -0.2229
      9 N          63.0871   87.4194   13.4942 N.ar    1  UNL1       -0.1765
     10 C          63.4133   87.6050   14.9465 C.ar    1  UNL1        0.3669
     11 O          63.4752   88.9143   15.6759 O.2     1  UNL1       -0.2429
     12 C          62.9053   83.9930   11.5001 C.ar    1  UNL1        0.0032
     13 C          62.0417   83.0376   12.2692 C.ar    1  UNL1        0.0010
     14 C          62.0936   81.5694   11.9665 C.ar    1  UNL1        0.0114
     15 C          63.0091   81.0566   10.8946 C.ar    1  UNL1        0.0577
     16 CL         63.0610   79.5884   10.5919 Cl      1  UNL1       -0.0822
     17 C          63.8727   82.0119   10.1255 C.ar    1  UNL1        0.0114
     18 C          63.8208   83.4801   10.4282 C.ar    1  UNL1        0.0010
     19 C          62.2301   85.9494    9.3284 C.ar    1  UNL1        0.0078
     20 C          63.3471   85.4336    8.4704 C.ar    1  UNL1        0.0208
     21 C          63.0615   84.9436    7.0818 C.ar    1  UNL1        0.0989
     22 N          61.6586   84.9694    6.5511 N.ar    1  UNL1       -0.2423
     23 C          60.5416   85.4852    7.4091 C.ar    1  UNL1        0.0989
     24 C          60.8273   85.9752    8.7977 C.ar    1  UNL1        0.0208
     25 C          63.0684   86.3228   18.0685 C.3     1  UNL1        0.0286
     26 C          64.0267   85.9697   16.9700 C.3     1  UNL1        0.1324
     27 C          62.6976   89.8658   12.7111 C.3     1  UNL1        0.1568
     28 C          63.9499   90.5973   13.0946 C.ar    1  UNL1        0.0158
     29 C          64.5321   90.4199   14.4655 C.ar    1  UNL1        0.0003
     30 C          65.7843   91.1514   14.8489 C.ar    1  UNL1        0.0228
     31 C          66.4542   92.0601   13.8614 C.ar    1  UNL1        0.1522
     32 N          65.8720   92.2375   12.4904 N.ar    1  UNL1       -0.2460
     33 C          64.6199   91.5060   12.1070 C.ar    1  UNL1        0.0572
     34 C          64.0376   91.6834   10.7360 C.3     1  UNL1        0.0518
     35 C          67.7065   92.7916   14.2448 C.3     1  UNL1        0.4348
     36 F          68.9586   93.5230   14.6283 F       1  UNL1       -0.1644
     37 F          68.5221   91.8054   13.4624 F       1  UNL1       -0.1644
     38 F          66.8908   93.7777   15.0272 F       1  UNL1       -0.1644
@<TRIPOS>BOND
     1    25    26    1
     2    26     1    1
     3     1     2   ar
     4     2     3   ar
     5     3     4   ar
     6     4    12    1
     7    12    13   ar
     8    13    14   ar
     9    14    15   ar
    10    15    16    1
    11    15    17   ar
    12    17    18   ar
    13     4     5   ar
    14     5    19    1
    15    19    20   ar
    16    20    21   ar
    17    21    22   ar
    18    22    23   ar
    19    23    24   ar
    20     5     6   ar
    21     6     7    2
    22     6     8   ar
    23     8    27    1
    24    27    28    1
    25    28    29   ar
    26    29    30   ar
    27    30    31   ar
    28    31    35    1
    29    35    36    1
    30    35    37    1
    31    35    38    1
    32    31    32   ar
    33    32    33   ar
    34    33    34    1
    35     8     9   ar
    36     9    10   ar
    37    10    11    2
    38    10     1   ar
    39     9     3   ar
    40    18    12   ar
    41    24    19   ar
    42    33    28   ar
@<TRIPOS>MOLECULE
*****
 38 42 0 0 0
SMALL
GASTEIGER

@<TRIPOS>ATOM
      1 N          60.6239   87.3855    8.7580 N.ar    1  UNL1       -0.1994
      2 N          61.1947   86.1043    9.2896 N.ar    1  UNL1       -0.1460
      3 C          61.8703   86.4041   10.5949 C.ar    1  UNL1        0.1860
      4 C          62.6052   85.5311   11.5684 C.ar    1  UNL1        0.0422
      5 C          63.1868   86.1247   12.8172 C.ar    1  UNL1        0.0606
      6 C          63.0335   87.5913   13.0924 C.ar    1  UNL1        0.2756
      7 O          63.6150   88.1848   14.3411 O.2     1  UNL1       -0.2655
      8 N          62.2985   88.4642   12.1188 N.ar    1  UNL1       -0.2229
      9 N          61.7169   87.8706   10.8701 N.ar    1  UNL1       -0.1765
     10 C          60.9466   88.4772    9.7349 C.ar    1  UNL1        0.3669
     11 O          60.5658   89.9218    9.6002 O.2     1  UNL1       -0.2429
     12 C          62.7586   84.0646   11.2931 C.ar    1  UNL1        0.0032
     13 C          63.6374   83.6002   10.1698 C.ar    1  UNL1        0.0010
     14 C          63.7908   82.1337    9.8946 C.ar    1  UNL1        0.0114
     15 C          63.0654   81.1315   10.7427 C.ar    1  UNL1        0.0577
     16 CL         63.2188   79.6650   10.4675 Cl      1  UNL1       -0.0822
     17 C          62.1865   81.5959   11.8661 C.ar    1  UNL1        0.0114
     18 C          62.0331   83.0624   12.1414 C.ar    1  UNL1        0.0010
     19 C          63.9218   85.2518   13.7907 C.ar    1  UNL1        0.0078
     20 C          63.1570   84.4016   14.7614 C.ar    1  UNL1        0.0208
     21 C          63.8919   83.5287   15.7349 C.ar    1  UNL1        0.0989
     22 N          65.3918   83.5059   15.7377 N.ar    1  UNL1       -0.2423
     23 C          66.1566   84.3560   14.7670 C.ar    1  UNL1        0.0989
     24 C          65.4216   85.2290   13.7935 C.ar    1  UNL1        0.0208
     25 C          59.3550   88.8984    7.0695 C.3     1  UNL1        0.0286
     26 C          59.8637   87.5468    7.4750 C.3     1  UNL1        0.1324
     27 C          62.1451   89.9307   12.3940 C.3     1  UNL1        0.1568
     28 C          63.2356   90.8848   12.0059 C.ar    1  UNL1        0.0158
     29 C          63.4319   91.2534   10.5652 C.ar    1  UNL1        0.0003
     30 C          64.5225   92.2074   10.1771 C.ar    1  UNL1        0.0228
     31 C          65.4166   92.7927   11.2296 C.ar    1  UNL1        0.1522
     32 N          65.2203   92.4241   12.6703 N.ar    1  UNL1       -0.2460
     33 C          64.1298   91.4701   13.0584 C.ar    1  UNL1        0.0572
     34 C          63.9334   91.1014   14.4991 C.3     1  UNL1        0.0518
     35 C          66.5072   93.7467   10.8415 C.3     1  UNL1        0.4348
     36 F          67.5977   94.7007   10.4533 F       1  UNL1       -0.1644
     37 F          67.3169   92.6033   10.3058 F       1  UNL1       -0.1644
     38 F          65.6975   94.8902   11.3771 F       1  UNL1       -0.1644
@<TRIPOS>BOND
     1    25    26    1
     2    26     1    1
     3     1     2   ar
     4     2     3   ar
     5     3     4   ar
     6     4    12    1
     7    12    13   ar
     8    13    14   ar
     9    14    15   ar
    10    15    16    1
    11    15    17   ar
    12    17    18   ar
    13     4     5   ar
    14     5    19    1
    15    19    20   ar
    16    20    21   ar
    17    21    22   ar
    18    22    23   ar
    19    23    24   ar
    20     5     6   ar
    21     6     7    2
    22     6     8   ar
    23     8    27    1
    24    27    28    1
    25    28    29   ar
    26    29    30   ar
    27    30    31   ar
    28    31    35    1
    29    35    36    1
    30    35    37    1
    31    35    38    1
    32    31    32   ar
    33    32    33   ar
    34    33    34    1
    35     8     9   ar
    36     9    10   ar
    37    10    11    2
    38    10     1   ar
    39     9     3   ar
    40    18    12   ar
    41    24    19   ar
    42    33    28   ar
@<TRIPOS>MOLECULE
*****
 38 42 0 0 0
SMALL
GASTEIGER

@<TRIPOS>ATOM
      1 N          60.9895   88.0201    9.0238 N.ar    1  UNL1       -0.1994
      2 N          61.4806   86.6708    9.4573 N.ar    1  UNL1       -0.1460
      3 C          62.1121   86.8198   10.8098 C.ar    1  UNL1        0.1860
      4 C          62.7659   85.8291   11.7269 C.ar    1  UNL1        0.0422
      5 C          63.3188   86.2799   13.0464 C.ar    1  UNL1        0.0606
      6 C          63.2179   87.7215   13.4487 C.ar    1  UNL1        0.2756
      7 O          63.7709   88.1723   14.7682 O.2     1  UNL1       -0.2655
      8 N          62.5641   88.7121   12.5316 N.ar    1  UNL1       -0.2229
      9 N          62.0112   88.2613   11.2121 N.ar    1  UNL1       -0.1765
     10 C          61.3174   89.0031   10.1083 C.ar    1  UNL1        0.3669
     11 O          61.0062   90.4704   10.0920 O.2     1  UNL1       -0.2429
     12 C          62.8668   84.3876   11.3245 C.ar    1  UNL1        0.0032
     13 C          62.1330   83.3379   12.1053 C.ar    1  UNL1        0.0010
     14 C          62.2339   81.8964   11.7029 C.ar    1  UNL1        0.0114
     15 C          63.0685   81.5046   10.5198 C.ar    1  UNL1        0.0577
     16 CL         63.1694   80.0631   10.1175 Cl      1  UNL1       -0.0822
     17 C          63.8023   82.5543    9.7389 C.ar    1  UNL1        0.0114
     18 C          63.7014   83.9958   10.1413 C.ar    1  UNL1        0.0010
     19 C          63.9726   85.2893   13.9635 C.ar    1  UNL1        0.0078
     20 C          63.1392   84.4900   14.9209 C.ar    1  UNL1        0.0208
     21 C          63.7930   83.4993   15.8380 C.ar    1  UNL1        0.0989
     22 N          65.2803   83.3079   15.7977 N.ar    1  UNL1       -0.2423
     23 C          66.1137   84.1072   14.8403 C.ar    1  UNL1        0.0989
     24 C          65.4598   85.0979   13.9232 C.ar    1  UNL1        0.0208
     25 C          59.0357   87.6015    7.3632 C.3     1  UNL1        0.0286
     26 C          60.2928   88.3318    7.7325 C.3     1  UNL1        0.1324
     27 C          62.4632   90.1536   12.9339 C.3     1  UNL1        0.1568
     28 C          63.6820   90.8860   13.4119 C.ar    1  UNL1        0.0158
     29 C          64.0346   90.8838   14.8698 C.ar    1  UNL1        0.0003
     30 C          65.2533   91.6161   15.3477 C.ar    1  UNL1        0.0228
     31 C          66.1194   92.3505   14.3677 C.ar    1  UNL1        0.1522
     32 N          65.7668   92.3527   12.9097 N.ar    1  UNL1       -0.2460
     33 C          64.5481   91.6204   12.4319 C.ar    1  UNL1        0.0572
     34 C          64.1954   91.6226   10.9738 C.3     1  UNL1        0.0518
     35 C          67.3382   93.0828   14.8456 C.3     1  UNL1        0.4348
     36 F          68.5569   93.8151   15.3236 F       1  UNL1       -0.1644
     37 F          66.7522   94.3753   14.3598 F       1  UNL1       -0.1644
     38 F          67.9242   91.7904   15.3315 F       1  UNL1       -0.1644
@<TRIPOS>BOND
     1    25    26    1
     2    26     1    1
     3     1     2   ar
     4     2     3   ar
     5     3     4   ar
     6     4    12    1
     7    12    13   ar
     8    13    14   ar
     9    14    15   ar
    10    15    16    1
    11    15    17   ar
    12    17    18   ar
    13     4     5   ar
    14     5    19    1
    15    19    20   ar
    16    20    21   ar
    17    21    22   ar
    18    22    23   ar
    19    23    24   ar
    20     5     6   ar
    21     6     7    2
    22     6     8   ar
    23     8    27    1
    24    27    28    1
    25    28    29   ar
    26    29    30   ar
    27    30    31   ar
    28    31    35    1
    29    35    36    1
    30    35    37    1
    31    35    38    1
    32    31    32   ar
    33    32    33   ar
    34    33    34    1
    35     8     9   ar
    36     9    10   ar
    37    10    11    2
    38    10     1   ar
    39     9     3   ar
    40    18    12   ar
    41    24    19   ar
    42    33    28   ar
