@<TRIPOS>MOLECULE
*****
 25 28 0 0 0
SMALL
GASTEIGER

@<TRIPOS>ATOM
      1 N          62.8333   85.7377   12.4361 N.ar    1  UNL1       -0.2069
      2 C          63.6395   86.6968   13.2608 C.ar    1  UNL1        0.1112
      3 C          63.4277   88.0750   12.7080 C.ar    1  UNL1        0.0780
      4 CL         64.0447   89.3387   13.2299 Cl      1  UNL1       -0.0806
      5 C          62.4906   87.9677   11.5417 C.ar    1  UNL1        0.0293
      6 C          61.9243   88.9988   10.6109 C.ar    1  UNL1       -0.0022
      7 C          60.9906   88.5852    9.5121 C.ar    1  UNL1       -0.0246
      8 C          60.6233   87.1407    9.3442 C.ar    1  UNL1       -0.0232
      9 C          61.1895   86.1096   10.2748 C.ar    1  UNL1        0.0145
     10 C          62.1232   86.5231   11.3736 C.ar    1  UNL1        0.0831
     11 C          59.7172   86.5187    8.3232 C.3     1  UNL1        0.0431
     12 C          58.9547   87.1878    7.2182 C.3     1  UNL1        0.0733
     13 N          58.9100   88.6439    6.8613 N.3     1  UNL1       -0.2969
     14 C          59.6167   89.7908    7.5211 C.3     1  UNL1        0.0733
     15 C          60.5427   89.7646    8.7008 C.3     1  UNL1        0.0431
     16 H          57.9213   88.8893    6.9128 H       1  UNL1        0.1233
     17 O          62.1198   84.4714   13.9812 O.2     1  UNL1       -0.1476
     18 S          62.7515   84.2536   12.6384 S.O2    1  UNL1        0.0860
     19 O          63.3832   84.0358   11.2954 O.2     1  UNL1       -0.1476
     20 C          62.6697   82.7696   12.8405 C.ar    1  UNL1        0.1277
     21 C          63.0060   81.8394   11.7128 C.ar    1  UNL1        0.0204
     22 C          62.9243   80.3553   11.9149 C.ar    1  UNL1        0.0014
     23 C          62.5062   79.8013   13.2447 C.ar    1  UNL1        0.0001
     24 C          62.1698   80.7316   14.3724 C.ar    1  UNL1        0.0014
     25 C          62.2516   82.2156   14.1702 C.ar    1  UNL1        0.0204
@<TRIPOS>BOND
     1    17    18    2
     2    18    19    2
     3    18    20    1
     4    20    21   ar
     5    21    22   ar
     6    22    23   ar
     7    23    24   ar
     8    24    25   ar
     9    18     1    1
    10     1     2   ar
    11     2     3   ar
    12     3     4    1
    13     3     5   ar
    14     5     6   ar
    15     6     7   ar
    16     7     8   ar
    17     8     9   ar
    18     9    10   ar
    19     8    11    1
    20    11    12    1
    21    12    13    1
    22    13    14    1
    23    14    15    1
    24    25    20   ar
    25    10     1   ar
    26    10     5   ar
    27    15     7    1
    28    13    16    1
@<TRIPOS>MOLECULE
*****
 25 28 0 0 0
SMALL
GASTEIGER

@<TRIPOS>ATOM
      1 N          63.2313   89.1382   12.4393 N.ar    1  UNL1       -0.2069
      2 C          62.4439   89.5710   11.2382 C.ar    1  UNL1        0.1112
      3 C          61.9130   88.3406   10.5641 C.ar    1  UNL1        0.0780
      4 CL         61.0707   88.3091    9.3234 Cl      1  UNL1       -0.0806
      5 C          62.3724   87.1475   11.3486 C.ar    1  UNL1        0.0293
      6 C          62.1540   85.6758   11.1573 C.ar    1  UNL1       -0.0022
      7 C          62.7504   84.6971   12.1250 C.ar    1  UNL1       -0.0246
      8 C          63.5651   85.1900   13.2839 C.ar    1  UNL1       -0.0232
      9 C          63.7835   86.6616   13.4752 C.ar    1  UNL1        0.0145
     10 C          63.1871   87.6404   12.5075 C.ar    1  UNL1        0.0831
     11 C          64.2438   84.3913   14.3570 C.3     1  UNL1        0.0431
     12 C          64.2753   82.9023   14.5361 C.3     1  UNL1        0.0733
     13 N          63.6359   81.8445   13.6864 N.3     1  UNL1       -0.2969
     14 C          62.8071   82.0141   12.4477 C.3     1  UNL1        0.0733
     15 C          62.4130   83.2837   11.7528 C.3     1  UNL1        0.0431
     16 H          63.0329   81.3306   14.3289 H       1  UNL1        0.1233
     17 O          64.4363   90.8746   12.2573 O.2     1  UNL1       -0.1476
     18 S          63.9388   90.0442   13.4031 S.O2    1  UNL1        0.0860
     19 O          63.4412   89.2136   14.5488 O.2     1  UNL1       -0.1476
     20 C          64.6462   90.9500   14.3669 C.ar    1  UNL1        0.1277
     21 C          65.9300   91.6149   13.9669 C.ar    1  UNL1        0.0204
     22 C          66.6374   92.5207   14.9307 C.ar    1  UNL1        0.0014
     23 C          66.0612   92.7617   16.2945 C.ar    1  UNL1        0.0001
     24 C          64.7774   92.0968   16.6944 C.ar    1  UNL1        0.0014
     25 C          64.0700   91.1910   15.7306 C.ar    1  UNL1        0.0204
@<TRIPOS>BOND
     1    17    18    2
     2    18    19    2
     3    18    20    1
     4    20    21   ar
     5    21    22   ar
     6    22    23   ar
     7    23    24   ar
     8    24    25   ar
     9    18     1    1
    10     1     2   ar
    11     2     3   ar
    12     3     4    1
    13     3     5   ar
    14     5     6   ar
    15     6     7   ar
    16     7     8   ar
    17     8     9   ar
    18     9    10   ar
    19     8    11    1
    20    11    12    1
    21    12    13    1
    22    13    14    1
    23    14    15    1
    24    25    20   ar
    25    10     1   ar
    26    10     5   ar
    27    15     7    1
    28    13    16    1
@<TRIPOS>MOLECULE
*****
 25 28 0 0 0
SMALL
GASTEIGER

@<TRIPOS>ATOM
      1 N          63.5020   87.3926   13.2230 N.ar    1  UNL1       -0.2069
      2 C          63.8667   85.9844   13.5890 C.ar    1  UNL1        0.1112
      3 C          63.2293   85.0658   12.5890 C.ar    1  UNL1        0.0780
      4 CL         63.3324   83.5694   12.5756 Cl      1  UNL1       -0.0806
      5 C          62.4707   85.9062   11.6051 C.ar    1  UNL1        0.0293
      6 C          61.6482   85.5477   10.4030 C.ar    1  UNL1       -0.0022
      7 C          60.9943   86.6275    9.5926 C.ar    1  UNL1       -0.0246
      8 C          61.1628   88.0654    9.9844 C.ar    1  UNL1       -0.0232
      9 C          61.9853   88.4240   11.1865 C.ar    1  UNL1        0.0145
     10 C          62.6392   87.3443   11.9969 C.ar    1  UNL1        0.0831
     11 C          60.6014   89.2877    9.3202 C.3     1  UNL1        0.0431
     12 C          59.7329   89.3736    8.1002 C.3     1  UNL1        0.0733
     13 N          59.2112   88.2587    7.2433 N.3     1  UNL1       -0.2969
     14 C          59.4292   86.7823    7.3944 C.3     1  UNL1        0.0733
     15 C          60.2227   86.0563    8.4400 C.3     1  UNL1        0.0431
     16 H          59.5554   88.4733    6.3074 H       1  UNL1        0.1233
     17 O          63.9182   87.8710   15.2473 O.2     1  UNL1       -0.1476
     18 S          63.9257   88.6317   13.9545 S.O2    1  UNL1        0.0860
     19 O          63.9331   89.3924   12.6617 O.2     1  UNL1       -0.1476
     20 C          64.3493   89.8708   14.6860 C.ar    1  UNL1        0.1277
     21 C          63.6290   90.2885   15.9337 C.ar    1  UNL1        0.0204
     22 C          64.0526   91.5276   16.6651 C.ar    1  UNL1        0.0014
     23 C          65.1966   92.3491   16.1491 C.ar    1  UNL1        0.0001
     24 C          65.9170   91.9314   14.9014 C.ar    1  UNL1        0.0014
     25 C          65.4934   90.6923   14.1699 C.ar    1  UNL1        0.0204
@<TRIPOS>BOND
     1    17    18    2
     2    18    19    2
     3    18    20    1
     4    20    21   ar
     5    21    22   ar
     6    22    23   ar
     7    23    24   ar
     8    24    25   ar
     9    18     1    1
    10     1     2   ar
    11     2     3   ar
    12     3     4    1
    13     3     5   ar
    14     5     6   ar
    15     6     7   ar
    16     7     8   ar
    17     8     9   ar
    18     9    10   ar
    19     8    11    1
    20    11    12    1
    21    12    13    1
    22    13    14    1
    23    14    15    1
    24    25    20   ar
    25    10     1   ar
    26    10     5   ar
    27    15     7    1
    28    13    16    1
@<TRIPOS>MOLECULE
*****
 25 28 0 0 0
SMALL
GASTEIGER

@<TRIPOS>ATOM
      1 N          63.3841   84.1510   12.5605 N.ar    1  UNL1       -0.2069
      2 C          64.1726   84.5946   13.7568 C.ar    1  UNL1        0.1112
      3 C          64.0903   86.0902   13.8377 C.ar    1  UNL1        0.0780
      4 CL         64.7343   86.9534   14.8817 Cl      1  UNL1       -0.0806
      5 C          63.2508   86.5708   12.6913 C.ar    1  UNL1        0.0293
      6 C          62.8275   87.9450   12.2643 C.ar    1  UNL1       -0.0022
      7 C          61.9676   88.1207   11.0477 C.ar    1  UNL1       -0.0246
      8 C          61.5312   86.9223   10.2584 C.ar    1  UNL1       -0.0232
      9 C          61.9545   85.5481   10.6854 C.ar    1  UNL1        0.0145
     10 C          62.8143   85.3723   11.9019 C.ar    1  UNL1        0.0831
     11 C          60.6798   86.8746    9.0243 C.3     1  UNL1        0.0431
     12 C          60.0546   88.0138    8.2748 C.3     1  UNL1        0.0733
     13 N          60.1265   89.4817    8.5744 N.3     1  UNL1       -0.2969
     14 C          60.8412   90.1733    9.6973 C.3     1  UNL1        0.0733
     15 C          61.6606   89.5676   10.7981 C.3     1  UNL1        0.0431
     16 H          59.1532   89.7699    8.6751 H       1  UNL1        0.1233
     17 O          62.2185   82.5040   13.2153 O.2     1  UNL1       -0.1476
     18 S          63.1979   82.7347   12.1028 S.O2    1  UNL1        0.0860
     19 O          64.1773   82.9654   10.9904 O.2     1  UNL1       -0.1476
     20 C          63.0117   81.3184   11.6452 C.ar    1  UNL1        0.1277
     21 C          63.1694   80.9722   10.1942 C.ar    1  UNL1        0.0204
     22 C          62.9833   79.5560    9.7365 C.ar    1  UNL1        0.0014
     23 C          62.6395   78.4858   10.7297 C.ar    1  UNL1        0.0001
     24 C          62.4817   78.8320   12.1807 C.ar    1  UNL1        0.0014
     25 C          62.6679   80.2482   12.6384 C.ar    1  UNL1        0.0204
@<TRIPOS>BOND
     1    17    18    2
     2    18    19    2
     3    18    20    1
     4    20    21   ar
     5    21    22   ar
     6    22    23   ar
     7    23    24   ar
     8    24    25   ar
     9    18     1    1
    10     1     2   ar
    11     2     3   ar
    12     3     4    1
    13     3     5   ar
    14     5     6   ar
    15     6     7   ar
    16     7     8   ar
    17     8     9   ar
    18     9    10   ar
    19     8    11    1
    20    11    12    1
    21    12    13    1
    22    13    14    1
    23    14    15    1
    24    25    20   ar
    25    10     1   ar
    26    10     5   ar
    27    15     7    1
    28    13    16    1
@<TRIPOS>MOLECULE
*****
 25 28 0 0 0
SMALL
GASTEIGER

@<TRIPOS>ATOM
      1 N          62.3730   87.7789   11.6182 N.ar    1  UNL1       -0.2069
      2 C          63.0384   88.8949   12.3677 C.ar    1  UNL1        0.1112
      3 C          63.8310   88.2918   13.4894 C.ar    1  UNL1        0.0780
      4 CL         64.6546   89.0452   14.4914 Cl      1  UNL1       -0.0806
      5 C          63.6554   86.8032   13.4330 C.ar    1  UNL1        0.0293
      6 C          64.1997   85.6954   14.2854 C.ar    1  UNL1       -0.0022
      7 C          63.8428   84.2705   13.9813 C.ar    1  UNL1       -0.0246
      8 C          62.9417   83.9536   12.8249 C.ar    1  UNL1       -0.0232
      9 C          62.3974   85.0613   11.9725 C.ar    1  UNL1        0.0145
     10 C          62.7543   86.4862   12.2765 C.ar    1  UNL1        0.0831
     11 C          62.4644   82.6127   12.3512 C.3     1  UNL1        0.0431
     12 C          62.7705   81.2576   12.9172 C.3     1  UNL1        0.0733
     13 N          63.6293   80.9089   14.0965 N.3     1  UNL1       -0.2969
     14 C          64.3943   81.8289   15.0011 C.3     1  UNL1        0.0733
     15 C          64.4893   83.3250   14.9498 C.3     1  UNL1        0.0431
     16 H          64.3348   80.2755   13.7203 H       1  UNL1        0.1233
     17 O          62.6263   87.5588    9.5236 O.2     1  UNL1       -0.1476
     18 S          61.4825   87.9292   10.4204 S.O2    1  UNL1        0.0860
     19 O          60.3386   88.2995   11.3175 O.2     1  UNL1       -0.1476
     20 C          60.5919   88.0795    9.2229 C.ar    1  UNL1        0.1277
     21 C          59.9069   86.8780    8.6420 C.ar    1  UNL1        0.0204
     22 C          59.0164   87.0283    7.4445 C.ar    1  UNL1        0.0014
     23 C          58.8107   88.3800    6.8275 C.ar    1  UNL1        0.0001
     24 C          59.4957   89.5815    7.4084 C.ar    1  UNL1        0.0014
     25 C          60.3863   89.4312    8.6059 C.ar    1  UNL1        0.0204
@<TRIPOS>BOND
     1    17    18    2
     2    18    19    2
     3    18    20    1
     4    20    21   ar
     5    21    22   ar
     6    22    23   ar
     7    23    24   ar
     8    24    25   ar
     9    18     1    1
    10     1     2   ar
    11     2     3   ar
    12     3     4    1
    13     3     5   ar
    14     5     6   ar
    15     6     7   ar
    16     7     8   ar
    17     8     9   ar
    18     9    10   ar
    19     8    11    1
    20    11    12    1
    21    12    13    1
    22    13    14    1
    23    14    15    1
    24    25    20   ar
    25    10     1   ar
    26    10     5   ar
    27    15     7    1
    28    13    16    1
@<TRIPOS>MOLECULE
*****
 25 28 0 0 0
SMALL
GASTEIGER

@<TRIPOS>ATOM
      1 N          62.7366   88.0215   12.1438 N.ar    1  UNL1       -0.2069
      2 C          62.8896   87.0053   13.2365 C.ar    1  UNL1        0.1112
      3 C          63.8335   87.5637   14.2599 C.ar    1  UNL1        0.0780
      4 CL         64.2703   86.8807   15.5219 Cl      1  UNL1       -0.0806
      5 C          64.2637   88.9250   13.7998 C.ar    1  UNL1        0.0293
      6 C          65.1853   89.9435   14.4027 C.ar    1  UNL1       -0.0022
      7 C          65.4289   91.2450   13.6978 C.ar    1  UNL1       -0.0246
      8 C          64.7510   91.5279   12.3900 C.ar    1  UNL1       -0.0232
      9 C          63.8295   90.5095   11.7871 C.ar    1  UNL1        0.0145
     10 C          63.5858   89.2080   12.4919 C.ar    1  UNL1        0.0831
     11 C          64.8542   92.7515   11.5285 C.3     1  UNL1        0.0431
     12 C          65.6610   93.9944   11.7622 C.3     1  UNL1        0.0733
     13 N          66.5635   94.3206   12.9149 N.3     1  UNL1       -0.2969
     14 C          66.8825   93.4845   14.1188 C.3     1  UNL1        0.0733
     15 C          66.3775   92.1157   14.4672 C.3     1  UNL1        0.0431
     16 H          66.1854   95.1868   13.2983 H       1  UNL1        0.1233
     17 O          61.1417   89.1269   11.2870 O.2     1  UNL1       -0.1476
     18 S          61.8840   87.8768   10.9182 S.O2    1  UNL1        0.0860
     19 O          62.6265   86.6266   10.5495 O.2     1  UNL1       -0.1476
     20 C          61.0315   87.7320    9.6926 C.ar    1  UNL1        0.1277
     21 C          60.4797   88.9510    9.0145 C.ar    1  UNL1        0.0204
     22 C          59.6272   88.8062    7.7889 C.ar    1  UNL1        0.0014
     23 C          59.3264   87.4425    7.2412 C.ar    1  UNL1        0.0001
     24 C          59.8783   86.2235    7.9193 C.ar    1  UNL1        0.0014
     25 C          60.7308   86.3684    9.1449 C.ar    1  UNL1        0.0204
@<TRIPOS>BOND
     1    17    18    2
     2    18    19    2
     3    18    20    1
     4    20    21   ar
     5    21    22   ar
     6    22    23   ar
     7    23    24   ar
     8    24    25   ar
     9    18     1    1
    10     1     2   ar
    11     2     3   ar
    12     3     4    1
    13     3     5   ar
    14     5     6   ar
    15     6     7   ar
    16     7     8   ar
    17     8     9   ar
    18     9    10   ar
    19     8    11    1
    20    11    12    1
    21    12    13    1
    22    13    14    1
    23    14    15    1
    24    25    20   ar
    25    10     1   ar
    26    10     5   ar
    27    15     7    1
    28    13    16    1
@<TRIPOS>MOLECULE
*****
 25 28 0 0 0
SMALL
GASTEIGER

@<TRIPOS>ATOM
      1 N          63.0547   86.3741   12.2618 N.ar    1  UNL1       -0.2069
      2 C          63.8115   87.4506   12.9817 C.ar    1  UNL1        0.1112
      3 C          63.4270   88.7695   12.3795 C.ar    1  UNL1        0.0780
      4 CL         63.9459   90.1137   12.7964 Cl      1  UNL1       -0.0806
      5 C          62.4326   88.5082   11.2874 C.ar    1  UNL1        0.0293
      6 C          61.7069   89.4270   10.3498 C.ar    1  UNL1       -0.0022
      7 C          60.7510   88.8653    9.3394 C.ar    1  UNL1       -0.0246
      8 C          60.5209   87.3850    9.2666 C.ar    1  UNL1       -0.0232
      9 C          61.2466   86.4661   10.2041 C.ar    1  UNL1        0.0145
     10 C          62.2024   87.0277   11.2146 C.ar    1  UNL1        0.0831
     11 C          59.6184   86.6231    8.3418 C.3     1  UNL1        0.0431
     12 C          58.7231   87.1537    7.2615 C.3     1  UNL1        0.0733
     13 N          58.5092   88.5769    6.8392 N.3     1  UNL1       -0.2969
     14 C          59.1378   89.8213    7.3928 C.3     1  UNL1        0.0733
     15 C          60.1355   89.9497    8.5055 C.3     1  UNL1        0.0431
     16 H          57.5062   88.7275    6.9472 H       1  UNL1        0.1233
     17 O          62.7543   85.1515   13.9691 O.2     1  UNL1       -0.1476
     18 S          63.1358   84.9024   12.5400 S.O2    1  UNL1        0.0860
     19 O          63.5173   84.6533   11.1108 O.2     1  UNL1       -0.1476
     20 C          63.2169   83.4307   12.8181 C.ar    1  UNL1        0.1277
     21 C          62.4961   82.8495   13.9983 C.ar    1  UNL1        0.0204
     22 C          62.5772   81.3778   14.2765 C.ar    1  UNL1        0.0014
     23 C          63.3791   80.4871   13.3745 C.ar    1  UNL1        0.0001
     24 C          64.1000   81.0682   12.1943 C.ar    1  UNL1        0.0014
     25 C          64.0188   82.5399   11.9162 C.ar    1  UNL1        0.0204
@<TRIPOS>BOND
     1    17    18    2
     2    18    19    2
     3    18    20    1
     4    20    21   ar
     5    21    22   ar
     6    22    23   ar
     7    23    24   ar
     8    24    25   ar
     9    18     1    1
    10     1     2   ar
    11     2     3   ar
    12     3     4    1
    13     3     5   ar
    14     5     6   ar
    15     6     7   ar
    16     7     8   ar
    17     8     9   ar
    18     9    10   ar
    19     8    11    1
    20    11    12    1
    21    12    13    1
    22    13    14    1
    23    14    15    1
    24    25    20   ar
    25    10     1   ar
    26    10     5   ar
    27    15     7    1
    28    13    16    1
@<TRIPOS>MOLECULE
*****
 25 28 0 0 0
SMALL
GASTEIGER

@<TRIPOS>ATOM
      1 N          62.7639   85.9427   12.0292 N.ar    1  UNL1       -0.2069
      2 C          62.8715   84.8496   13.0507 C.ar    1  UNL1        0.1112
      3 C          63.4905   85.4303   14.2875 C.ar    1  UNL1        0.0780
      4 CL         63.7832   84.6890   15.5582 Cl      1  UNL1       -0.0806
      5 C          63.7654   86.8822   14.0304 C.ar    1  UNL1        0.0293
      6 C          64.3666   87.9569   14.8869 C.ar    1  UNL1       -0.0022
      7 C          64.5187   89.3484   14.3477 C.ar    1  UNL1       -0.0246
      8 C          64.0697   89.6651   12.9520 C.ar    1  UNL1       -0.0232
      9 C          63.4685   88.5905   12.0955 C.ar    1  UNL1        0.0145
     10 C          63.3163   87.1990   12.6347 C.ar    1  UNL1        0.0831
     11 C          64.1297   90.9758   12.2250 C.3     1  UNL1        0.0431
     12 C          64.6537   92.2935   12.7142 C.3     1  UNL1        0.0733
     13 N          65.2470   92.6258   14.0511 N.3     1  UNL1       -0.2969
     14 C          65.4629   91.7227   15.2292 C.3     1  UNL1        0.0733
     15 C          65.1388   90.2641   15.3611 C.3     1  UNL1        0.0431
     16 H          64.6607   93.3790   14.4107 H       1  UNL1        0.1233
     17 O          61.0916   86.7470   11.0013 O.2     1  UNL1       -0.1476
     18 S          62.2024   85.8041   10.6451 S.O2    1  UNL1        0.0860
     19 O          63.3133   84.8610   10.2891 O.2     1  UNL1       -0.1476
     20 C          61.6410   85.6653    9.2612 C.ar    1  UNL1        0.1277
     21 C          62.4143   84.9277    8.2085 C.ar    1  UNL1        0.0204
     22 C          61.8529   84.7889    6.8246 C.ar    1  UNL1        0.0014
     23 C          60.5183   85.3878    6.4930 C.ar    1  UNL1        0.0001
     24 C          59.7449   86.1255    7.5456 C.ar    1  UNL1        0.0014
     25 C          60.3063   86.2642    8.9296 C.ar    1  UNL1        0.0204
@<TRIPOS>BOND
     1    17    18    2
     2    18    19    2
     3    18    20    1
     4    20    21   ar
     5    21    22   ar
     6    22    23   ar
     7    23    24   ar
     8    24    25   ar
     9    18     1    1
    10     1     2   ar
    11     2     3   ar
    12     3     4    1
    13     3     5   ar
    14     5     6   ar
    15     6     7   ar
    16     7     8   ar
    17     8     9   ar
    18     9    10   ar
    19     8    11    1
    20    11    12    1
    21    12    13    1
    22    13    14    1
    23    14    15    1
    24    25    20   ar
    25    10     1   ar
    26    10     5   ar
    27    15     7    1
    28    13    16    1
@<TRIPOS>MOLECULE
*****
 25 28 0 0 0
SMALL
GASTEIGER

@<TRIPOS>ATOM
      1 N          63.3875   85.0135   12.8777 N.ar    1  UNL1       -0.2069
      2 C          64.2741   83.8519   12.5393 C.ar    1  UNL1        0.1112
      3 C          64.0671   83.5171   11.0918 C.ar    1  UNL1        0.0780
      4 CL         64.7540   82.4202   10.3336 Cl      1  UNL1       -0.0806
      5 C          63.0526   84.4718   10.5358 C.ar    1  UNL1        0.0293
      6 C          62.4570   84.6186    9.1669 C.ar    1  UNL1       -0.0022
      7 C          61.4413   85.6902    8.9019 C.ar    1  UNL1       -0.0246
      8 C          61.0213   86.6149   10.0056 C.ar    1  UNL1       -0.0232
      9 C          61.6169   86.4682   11.3744 C.ar    1  UNL1        0.0145
     10 C          62.6325   85.3967   11.6395 C.ar    1  UNL1        0.0831
     11 C          60.0321   87.7415    9.9563 C.3     1  UNL1        0.0431
     12 C          59.2186   88.2214    8.7909 C.3     1  UNL1        0.0733
     13 N          59.1934   87.6933    7.3872 N.3     1  UNL1       -0.2969
     14 C          59.9755   86.5549    6.8020 C.3     1  UNL1        0.0733
     15 C          60.9759   85.6634    7.4761 C.3     1  UNL1        0.0431
     16 H          59.4385   88.4962    6.8078 H       1  UNL1        0.1233
     17 O          63.8668   86.9307   13.6488 O.2     1  UNL1       -0.1476
     18 S          63.2755   85.6757   14.2190 S.O2    1  UNL1        0.0860
     19 O          62.6841   84.4206   14.7892 O.2     1  UNL1       -0.1476
     20 C          63.1634   86.3378   15.5602 C.ar    1  UNL1        0.1277
     21 C          63.4363   87.8065   15.6968 C.ar    1  UNL1        0.0204
     22 C          63.3242   88.4686   17.0380 C.ar    1  UNL1        0.0014
     23 C          62.9392   87.6623   18.2428 C.ar    1  UNL1        0.0001
     24 C          62.6663   86.1936   18.1062 C.ar    1  UNL1        0.0014
     25 C          62.7784   85.5315   16.7650 C.ar    1  UNL1        0.0204
@<TRIPOS>BOND
     1    17    18    2
     2    18    19    2
     3    18    20    1
     4    20    21   ar
     5    21    22   ar
     6    22    23   ar
     7    23    24   ar
     8    24    25   ar
     9    18     1    1
    10     1     2   ar
    11     2     3   ar
    12     3     4    1
    13     3     5   ar
    14     5     6   ar
    15     6     7   ar
    16     7     8   ar
    17     8     9   ar
    18     9    10   ar
    19     8    11    1
    20    11    12    1
    21    12    13    1
    22    13    14    1
    23    14    15    1
    24    25    20   ar
    25    10     1   ar
    26    10     5   ar
    27    15     7    1
    28    13    16    1
