@<TRIPOS>MOLECULE
*****
 19 20 0 0 0
SMALL
GASTEIGER

@<TRIPOS>ATOM
      1 C          65.8531   91.7509   12.9983 C.3     1  UNL1        0.0324
      2 C          64.6276   91.7914   12.1343 C.3     1  UNL1        0.0053
      3 C          63.4673   90.8898   12.4357 C.3     1  UNL1        0.0004
      4 C          63.5325   89.9477   13.6011 C.3     1  UNL1        0.0000
      5 C          64.7580   89.9071   14.4651 C.3     1  UNL1        0.0004
      6 C          65.9183   90.8087   14.1637 C.3     1  UNL1        0.0053
      7 C          66.2629   92.8063   12.0142 C.ar    1  UNL1       -0.0206
      8 C          66.9008   92.4130   10.7149 C.ar    1  UNL1       -0.0033
      9 C          67.3107   93.4684    9.7309 C.ar    1  UNL1        0.0119
     10 C          67.0826   94.9170   10.0464 C.ar    1  UNL1        0.0682
     11 CL         67.4924   95.9724    9.0623 Cl      1  UNL1       -0.0814
     12 C          66.4447   95.3102   11.3457 C.ar    1  UNL1        0.0679
     13 CL         66.2166   96.7589   11.6611 Cl      1  UNL1       -0.0814
     14 C          66.0349   94.2549   12.3297 C.ar    1  UNL1        0.0080
     15 C          68.4361   91.7066   12.7229 C.3     1  UNL1        0.0177
     16 C          67.2210   92.0768   13.5205 C.3     1  UNL1        0.0613
     17 N          67.3736   92.7730   14.8404 N.3     1  UNL1       -0.2713
     18 C          68.7319   93.2051   15.3077 C.3     1  UNL1        0.0896
     19 C          66.1680   93.0370   15.6929 C.3     1  UNL1        0.0896
@<TRIPOS>BOND
     1    15    16    1
     2    16    17    1
     3    17    18    1
     4    17    19    1
     5    16     1    1
     6     1     7    1
     7     7     8   ar
     8     8     9   ar
     9     9    10   ar
    10    10    11    1
    11    10    12   ar
    12    12    13    1
    13    12    14   ar
    14     1     2    1
    15     2     3    1
    16     3     4    1
    17     4     5    1
    18     5     6    1
    19     6     1    1
    20    14     7   ar
@<TRIPOS>MOLECULE
*****
 19 20 0 0 0
SMALL
GASTEIGER

@<TRIPOS>ATOM
      1 C          61.3211   88.0069    9.3951 C.3     1  UNL1        0.0324
      2 C          62.5897   87.2132    9.4965 C.3     1  UNL1        0.0053
      3 C          62.7022   85.8872    8.8043 C.3     1  UNL1        0.0004
      4 C          61.5460   85.3550    8.0106 C.3     1  UNL1        0.0000
      5 C          60.2773   86.1488    7.9092 C.3     1  UNL1        0.0004
      6 C          60.1648   87.4747    8.6015 C.3     1  UNL1        0.0053
      7 C          62.1348   88.9256   10.2576 C.ar    1  UNL1       -0.0206
      8 C          62.4673   90.3070    9.7768 C.ar    1  UNL1       -0.0033
      9 C          63.2811   91.2256   10.6393 C.ar    1  UNL1        0.0119
     10 C          63.7623   90.7629   11.9825 C.ar    1  UNL1        0.0682
     11 CL         64.5761   91.6816   12.8450 Cl      1  UNL1       -0.0814
     12 C          63.4298   89.3815   12.4633 C.ar    1  UNL1        0.0679
     13 CL         63.9111   88.9188   13.8065 Cl      1  UNL1       -0.0814
     14 C          62.6161   88.4629   11.6008 C.ar    1  UNL1        0.0080
     15 C          59.9301   89.9786    8.4320 C.3     1  UNL1        0.0177
     16 C          60.3349   89.1198    9.5932 C.3     1  UNL1        0.0613
     17 N          59.7537   89.3737   10.9525 N.3     1  UNL1       -0.2713
     18 C          59.4643   88.2238   11.8712 C.3     1  UNL1        0.0896
     19 C          59.4620   90.7775   11.3931 C.3     1  UNL1        0.0896
@<TRIPOS>BOND
     1    15    16    1
     2    16    17    1
     3    17    18    1
     4    17    19    1
     5    16     1    1
     6     1     7    1
     7     7     8   ar
     8     8     9   ar
     9     9    10   ar
    10    10    11    1
    11    10    12   ar
    12    12    13    1
    13    12    14   ar
    14     1     2    1
    15     2     3    1
    16     3     4    1
    17     4     5    1
    18     5     6    1
    19     6     1    1
    20    14     7   ar
@<TRIPOS>MOLECULE
*****
 19 20 0 0 0
SMALL
GASTEIGER

@<TRIPOS>ATOM
      1 C          63.1328   85.4947   12.5180 C.3     1  UNL1        0.0324
      2 C          62.3581   85.4227   11.2357 C.3     1  UNL1        0.0053
      3 C          61.9534   86.6841   10.5321 C.3     1  UNL1        0.0004
      4 C          62.3236   88.0176   11.1109 C.3     1  UNL1        0.0000
      5 C          63.0984   88.0896   12.3932 C.3     1  UNL1        0.0004
      6 C          63.5030   86.8281   13.0968 C.3     1  UNL1        0.0053
      7 C          63.0179   84.0068   12.3663 C.ar    1  UNL1       -0.0206
      8 C          63.6638   83.3197   11.1998 C.ar    1  UNL1       -0.0033
      9 C          63.5488   81.8318   11.0482 C.ar    1  UNL1        0.0119
     10 C          62.7880   81.0311   12.0630 C.ar    1  UNL1        0.0682
     11 CL         62.6731   79.5431   11.9114 Cl      1  UNL1       -0.0814
     12 C          62.1421   81.7182   13.2295 C.ar    1  UNL1        0.0679
     13 CL         61.3813   80.9174   14.2443 Cl      1  UNL1       -0.0814
     14 C          62.2571   83.2060   13.3811 C.ar    1  UNL1        0.0080
     15 C          65.0820   84.1783   13.6216 C.3     1  UNL1        0.0177
     16 C          63.8678   85.0499   13.7477 C.3     1  UNL1        0.0613
     17 N          63.3885   85.4768   15.1034 N.3     1  UNL1       -0.2713
     18 C          62.2732   84.7307   15.7739 C.3     1  UNL1        0.0896
     19 C          64.0244   86.6498   15.7887 C.3     1  UNL1        0.0896
@<TRIPOS>BOND
     1    15    16    1
     2    16    17    1
     3    17    18    1
     4    17    19    1
     5    16     1    1
     6     1     7    1
     7     7     8   ar
     8     8     9   ar
     9     9    10   ar
    10    10    11    1
    11    10    12   ar
    12    12    13    1
    13    12    14   ar
    14     1     2    1
    15     2     3    1
    16     3     4    1
    17     4     5    1
    18     5     6    1
    19     6     1    1
    20    14     7   ar
@<TRIPOS>MOLECULE
*****
 19 20 0 0 0
SMALL
GASTEIGER

@<TRIPOS>ATOM
      1 C          60.9215   87.5297    9.2220 C.3     1  UNL1        0.0324
      2 C          60.3677   86.3817    8.4312 C.3     1  UNL1        0.0053
      3 C          59.2933   86.6220    7.4124 C.3     1  UNL1        0.0004
      4 C          58.7727   88.0102    7.1845 C.3     1  UNL1        0.0000
      5 C          59.3266   89.1581    7.9753 C.3     1  UNL1        0.0004
      6 C          60.4010   88.9179    8.9941 C.3     1  UNL1        0.0053
      7 C          61.7323   86.4044    9.7936 C.ar    1  UNL1       -0.0206
      8 C          62.6339   85.6019    8.9031 C.ar    1  UNL1       -0.0033
      9 C          63.4445   84.4767    9.4747 C.ar    1  UNL1        0.0119
     10 C          63.3536   84.1540   10.9367 C.ar    1  UNL1        0.0682
     11 CL         64.1643   83.0288   11.5083 Cl      1  UNL1       -0.0814
     12 C          62.4519   84.9565   11.8272 C.ar    1  UNL1        0.0679
     13 CL         62.3610   84.6339   13.2893 Cl      1  UNL1       -0.0814
     14 C          61.6413   86.0817   11.2556 C.ar    1  UNL1        0.0080
     15 C          63.2261   88.4684    9.9689 C.3     1  UNL1        0.0177
     16 C          61.7570   88.2868   10.2113 C.3     1  UNL1        0.0613
     17 N          61.1234   88.8624   11.4431 N.3     1  UNL1       -0.2713
     18 C          59.6717   88.6126   11.7264 C.3     1  UNL1        0.0896
     19 C          61.9414   89.6878   12.3915 C.3     1  UNL1        0.0896
@<TRIPOS>BOND
     1    15    16    1
     2    16    17    1
     3    17    18    1
     4    17    19    1
     5    16     1    1
     6     1     7    1
     7     7     8   ar
     8     8     9   ar
     9     9    10   ar
    10    10    11    1
    11    10    12   ar
    12    12    13    1
    13    12    14   ar
    14     1     2    1
    15     2     3    1
    16     3     4    1
    17     4     5    1
    18     5     6    1
    19     6     1    1
    20    14     7   ar
@<TRIPOS>MOLECULE
*****
 19 20 0 0 0
SMALL
GASTEIGER

@<TRIPOS>ATOM
      1 C          63.7375   84.6083   12.4666 C.3     1  UNL1        0.0324
      2 C          63.4722   86.0312   12.8600 C.3     1  UNL1        0.0053
      3 C          64.0358   86.5731   14.1401 C.3     1  UNL1        0.0004
      4 C          64.8648   85.6919   15.0268 C.3     1  UNL1        0.0000
      5 C          65.1302   84.2690   14.6335 C.3     1  UNL1        0.0004
      6 C          64.5665   83.7272   13.3534 C.3     1  UNL1        0.0053
      7 C          62.8995   85.0483   11.3029 C.ar    1  UNL1       -0.0206
      8 C          61.6420   85.8315   11.5377 C.ar    1  UNL1       -0.0033
      9 C          60.8041   86.2714   10.3740 C.ar    1  UNL1        0.0119
     10 C          61.2238   85.9282    8.9754 C.ar    1  UNL1        0.0682
     11 CL         60.3858   86.3682    7.8116 Cl      1  UNL1       -0.0814
     12 C          62.4813   85.1451    8.7405 C.ar    1  UNL1        0.0679
     13 CL         62.9010   84.8019    7.3419 Cl      1  UNL1       -0.0814
     14 C          63.3192   84.7051    9.9043 C.ar    1  UNL1        0.0080
     15 C          64.6004   83.1874   10.4701 C.3     1  UNL1        0.0177
     16 C          63.7118   83.3381   11.6691 C.3     1  UNL1        0.0613
     17 N          62.7976   82.2188   12.0706 N.3     1  UNL1       -0.2713
     18 C          62.7088   80.9830   11.2250 C.3     1  UNL1        0.0896
     19 C          61.9723   82.3352   13.3177 C.3     1  UNL1        0.0896
@<TRIPOS>BOND
     1    15    16    1
     2    16    17    1
     3    17    18    1
     4    17    19    1
     5    16     1    1
     6     1     7    1
     7     7     8   ar
     8     8     9   ar
     9     9    10   ar
    10    10    11    1
    11    10    12   ar
    12    12    13    1
    13    12    14   ar
    14     1     2    1
    15     2     3    1
    16     3     4    1
    17     4     5    1
    18     5     6    1
    19     6     1    1
    20    14     7   ar
@<TRIPOS>MOLECULE
*****
 19 20 0 0 0
SMALL
GASTEIGER

@<TRIPOS>ATOM
      1 C          63.3675   84.4871   12.2134 C.3     1  UNL1        0.0324
      2 C          62.6110   85.7560   11.9537 C.3     1  UNL1        0.0053
      3 C          62.2641   86.1481   10.5481 C.3     1  UNL1        0.0004
      4 C          62.6737   85.2712    9.4020 C.3     1  UNL1        0.0000
      5 C          63.4303   84.0023    9.6617 C.3     1  UNL1        0.0004
      6 C          63.7772   83.6102   11.0673 C.3     1  UNL1        0.0053
      7 C          63.2005   84.9831   13.6192 C.ar    1  UNL1       -0.0206
      8 C          62.4756   84.1440   14.6293 C.ar    1  UNL1       -0.0033
      9 C          62.3086   84.6400   16.0350 C.ar    1  UNL1        0.0119
     10 C          62.8665   85.9750   16.4306 C.ar    1  UNL1        0.0682
     11 CL         62.6994   86.4710   17.8364 Cl      1  UNL1       -0.0814
     12 C          63.5914   86.8140   15.4204 C.ar    1  UNL1        0.0679
     13 CL         64.1493   88.1490   15.8160 Cl      1  UNL1       -0.0814
     14 C          63.7584   86.3181   14.0147 C.ar    1  UNL1        0.0080
     15 C          65.3579   83.6709   13.6701 C.3     1  UNL1        0.0177
     16 C          64.0661   83.3904   12.9613 C.3     1  UNL1        0.0613
     17 N          63.4729   82.0133   13.0003 N.3     1  UNL1       -0.2713
     18 C          64.1512   80.9262   13.7802 C.3     1  UNL1        0.0896
     19 C          62.2013   81.7232   12.2594 C.3     1  UNL1        0.0896
@<TRIPOS>BOND
     1    15    16    1
     2    16    17    1
     3    17    18    1
     4    17    19    1
     5    16     1    1
     6     1     7    1
     7     7     8   ar
     8     8     9   ar
     9     9    10   ar
    10    10    11    1
    11    10    12   ar
    12    12    13    1
    13    12    14   ar
    14     1     2    1
    15     2     3    1
    16     3     4    1
    17     4     5    1
    18     5     6    1
    19     6     1    1
    20    14     7   ar
@<TRIPOS>MOLECULE
*****
 19 20 0 0 0
SMALL
GASTEIGER

@<TRIPOS>ATOM
      1 C          61.0532   93.0659    1.6872 C.3     1  UNL1        0.0324
      2 C          62.3325   92.3609    2.0279 C.3     1  UNL1        0.0053
      3 C          62.4481   91.5960    3.3130 C.3     1  UNL1        0.0004
      4 C          61.2843   91.5361    4.2574 C.3     1  UNL1        0.0000
      5 C          60.0049   92.2411    3.9167 C.3     1  UNL1        0.0004
      6 C          59.8893   93.0061    2.6316 C.3     1  UNL1        0.0053
      7 C          61.8714   93.4125    0.4786 C.ar    1  UNL1       -0.0206
      8 C          61.4661   92.9030   -0.8727 C.ar    1  UNL1       -0.0033
      9 C          62.2842   93.2496   -2.0812 C.ar    1  UNL1        0.0119
     10 C          63.5077   94.1056   -1.9383 C.ar    1  UNL1        0.0682
     11 CL         64.3259   94.4522   -3.1469 Cl      1  UNL1       -0.0814
     12 C          63.9130   94.6151   -0.5870 C.ar    1  UNL1        0.0679
     13 CL         65.1364   95.4711   -0.4441 Cl      1  UNL1       -0.0814
     14 C          63.0948   94.2685    0.6215 C.ar    1  UNL1        0.0080
     15 C          58.9549   93.2206    0.1629 C.3     1  UNL1        0.0177
     16 C          60.0579   93.8913    0.9268 C.3     1  UNL1        0.0613
     17 N          60.1657   95.3874    0.9302 N.3     1  UNL1       -0.2713
     18 C          60.0191   96.1529   -0.3515 C.3     1  UNL1        0.0896
     19 C          60.4200   96.1181    2.2152 C.3     1  UNL1        0.0896
@<TRIPOS>BOND
     1    15    16    1
     2    16    17    1
     3    17    18    1
     4    17    19    1
     5    16     1    1
     6     1     7    1
     7     7     8   ar
     8     8     9   ar
     9     9    10   ar
    10    10    11    1
    11    10    12   ar
    12    12    13    1
    13    12    14   ar
    14     1     2    1
    15     2     3    1
    16     3     4    1
    17     4     5    1
    18     5     6    1
    19     6     1    1
    20    14     7   ar
@<TRIPOS>MOLECULE
*****
 19 20 0 0 0
SMALL
GASTEIGER

@<TRIPOS>ATOM
      1 C          63.4610   84.0506   13.2852 C.3     1  UNL1        0.0324
      2 C          62.9102   83.7814   11.9163 C.3     1  UNL1        0.0053
      3 C          62.7444   82.3690   11.4390 C.3     1  UNL1        0.0004
      4 C          63.1296   81.2259   12.3307 C.3     1  UNL1        0.0000
      5 C          63.6805   81.4952   13.6996 C.3     1  UNL1        0.0004
      6 C          63.8462   82.9075   14.1769 C.3     1  UNL1        0.0053
      7 C          63.2406   85.4569   12.8119 C.ar    1  UNL1       -0.0206
      8 C          62.4075   85.7156   11.5917 C.ar    1  UNL1       -0.0033
      9 C          62.1871   87.1218   11.1185 C.ar    1  UNL1        0.0119
     10 C          62.7998   88.2693   11.8655 C.ar    1  UNL1        0.0682
     11 CL         62.5794   89.6755   11.3922 Cl      1  UNL1       -0.0814
     12 C          63.6329   88.0105   13.0857 C.ar    1  UNL1        0.0679
     13 CL         64.2456   89.1580   13.8327 Cl      1  UNL1       -0.0814
     14 C          63.8533   86.6043   13.5589 C.ar    1  UNL1        0.0080
     15 C          65.3751   85.2138   14.6017 C.3     1  UNL1        0.0177
     16 C          63.9353   84.8083   14.4898 C.3     1  UNL1        0.0613
     17 N          62.9699   85.1603   15.5825 N.3     1  UNL1       -0.2713
     18 C          61.5744   84.6107   15.5562 C.3     1  UNL1        0.0896
     19 C          63.3999   86.0620   16.7015 C.3     1  UNL1        0.0896
@<TRIPOS>BOND
     1    15    16    1
     2    16    17    1
     3    17    18    1
     4    17    19    1
     5    16     1    1
     6     1     7    1
     7     7     8   ar
     8     8     9   ar
     9     9    10   ar
    10    10    11    1
    11    10    12   ar
    12    12    13    1
    13    12    14   ar
    14     1     2    1
    15     2     3    1
    16     3     4    1
    17     4     5    1
    18     5     6    1
    19     6     1    1
    20    14     7   ar
@<TRIPOS>MOLECULE
*****
 19 20 0 0 0
SMALL
GASTEIGER

@<TRIPOS>ATOM
      1 C          63.1302   94.0137   -0.8360 C.3     1  UNL1        0.0324
      2 C          61.8907   93.5043   -1.5098 C.3     1  UNL1        0.0053
      3 C          61.8033   93.4892   -3.0072 C.3     1  UNL1        0.0004
      4 C          62.9555   93.9835   -3.8307 C.3     1  UNL1        0.0000
      5 C          64.1950   94.4929   -3.1569 C.3     1  UNL1        0.0004
      6 C          64.2824   94.5080   -1.6595 C.3     1  UNL1        0.0053
      7 C          62.3095   93.6527    0.3667 C.ar    1  UNL1       -0.0206
      8 C          60.9604   94.2766    0.5688 C.ar    1  UNL1       -0.0033
      9 C          60.1398   93.9156    1.7714 C.ar    1  UNL1        0.0119
     10 C          60.6683   92.9308    2.7718 C.ar    1  UNL1        0.0682
     11 CL         59.8476   92.5699    3.9745 Cl      1  UNL1       -0.0814
     12 C          62.0173   92.3070    2.5697 C.ar    1  UNL1        0.0679
     13 CL         62.5458   91.3222    3.5702 Cl      1  UNL1       -0.0814
     14 C          62.8379   92.6680    1.3671 C.ar    1  UNL1        0.0080
     15 C          65.1761   93.4533    0.6641 C.3     1  UNL1        0.0177
     16 C          64.0847   94.3978    0.2556 C.3     1  UNL1        0.0613
     17 N          63.9478   95.7262    0.9385 N.3     1  UNL1       -0.2713
     18 C          64.5153   95.9250    2.3127 C.3     1  UNL1        0.0896
     19 C          63.2435   96.8558    0.2473 C.3     1  UNL1        0.0896
@<TRIPOS>BOND
     1    15    16    1
     2    16    17    1
     3    17    18    1
     4    17    19    1
     5    16     1    1
     6     1     7    1
     7     7     8   ar
     8     8     9   ar
     9     9    10   ar
    10    10    11    1
    11    10    12   ar
    12    12    13    1
    13    12    14   ar
    14     1     2    1
    15     2     3    1
    16     3     4    1
    17     4     5    1
    18     5     6    1
    19     6     1    1
    20    14     7   ar
