@<TRIPOS>MOLECULE
*****
 34 37 0 0 0
SMALL
GASTEIGER

@<TRIPOS>ATOM
      1 C          63.4439   87.8209   16.0216 C.ar    1  UNL1        0.2637
      2 N          64.2428   88.4437   14.9154 N.ar    1  UNL1       -0.1887
      3 C          63.9972   89.9233   14.9425 C.ar    1  UNL1        0.2035
      4 N          63.0464   90.2148   16.0654 N.ar    1  UNL1       -0.0559
      5 O          62.7045   88.9154   16.7323 O.2     1  UNL1       -0.3345
      6 C          64.5970   90.9338   14.0102 C.ar    1  UNL1        0.0435
      7 C          65.6561   91.8741   14.5042 C.ar    1  UNL1        0.0327
      8 C          66.2559   92.8846   13.5720 C.ar    1  UNL1        0.1400
      9 F          67.3151   93.8250   14.0660 F       1  UNL1       -0.2044
     10 C          65.7966   92.9548   12.1459 C.ar    1  UNL1        0.0562
     11 C          64.7375   92.0146   11.6518 C.ar    1  UNL1        0.1400
     12 F          64.2782   92.0848   10.2256 F       1  UNL1       -0.2044
     13 C          64.1377   91.0040   12.5840 C.ar    1  UNL1        0.0327
     14 C          66.3965   93.9654   11.2137 C.3     1  UNL1        0.1817
     15 S          67.2681   93.5147   10.0791 S.O2    1  UNL1       -0.0039
     16 C          68.1396   93.0640    8.9445 C.3     1  UNL1        0.1764
     17 O          68.0101   92.6033   11.0111 O.2     1  UNL1       -0.1726
     18 O          66.5260   94.4261    9.1470 O.2     1  UNL1       -0.1726
     19 C          62.2599   85.8179   17.1776 C.3     1  UNL1        0.0423
     20 C          63.3933   86.3599   16.3580 C.3     1  UNL1        0.1934
     21 O          64.4760   85.4411   15.8748 O.3     1  UNL1       -0.3493
     22 C          64.1607   84.3744   14.8684 C.3     1  UNL1        0.1159
     23 C          64.3125   84.6572   13.4032 C.3     1  UNL1        0.0320
     24 C          63.9972   83.5905   12.3969 C.3     1  UNL1        0.0297
     25 C          63.5302   82.2410   12.8559 C.3     1  UNL1        0.0933
     26 C          63.6819   82.5238   11.3905 C.3     1  UNL1        0.0329
     27 C          63.3667   81.4570   10.3842 C.3     1  UNL1        0.0716
     28 C          62.8996   80.1075   10.8432 C.3     1  UNL1        0.2908
     29 F          62.4284   78.6846   10.7864 F       1  UNL1       -0.2016
     30 F          62.8877   79.8962    9.3582 F       1  UNL1       -0.2016
     31 C          62.7478   79.8247   12.3084 C.3     1  UNL1        0.2082
     32 O          63.0631   80.8914   13.3148 O.3     1  UNL1       -0.3529
     33 C          63.3784   81.9581   14.3211 C.3     1  UNL1        0.0297
     34 C          63.6936   83.0248   15.3274 C.3     1  UNL1        0.0320
@<TRIPOS>BOND
     1    20    19    1
     2    20    21    1
     3    22    21    1
     4    22    23    1
     5    23    24    1
     6    25    24    1
     7    25    26    1
     8    26    27    1
     9    27    28    1
    10    28    29    1
    11    28    30    1
    12    28    31    1
    13    31    32    1
    14    25    33    1
    15    33    34    1
    16    20     1    1
    17     1     2   ar
    18     2     3   ar
    19     3     6    1
    20     6     7   ar
    21     7     8   ar
    22     8     9    1
    23     8    10   ar
    24    10    14    1
    25    14    15    1
    26    15    16    1
    27    15    17    2
    28    15    18    2
    29    10    11   ar
    30    11    12    1
    31    11    13   ar
    32     3     4   ar
    33     4     5   ar
    34    34    22    1
    35     5     1   ar
    36    32    25    1
    37    13     6   ar
@<TRIPOS>MOLECULE
*****
 34 37 0 0 0
SMALL
GASTEIGER

@<TRIPOS>ATOM
      1 C          63.4462   87.9017   16.0501 C.ar    1  UNL1        0.2637
      2 N          64.2028   88.5018   14.9023 N.ar    1  UNL1       -0.1887
      3 C          63.9648   89.9827   14.9138 C.ar    1  UNL1        0.2035
      4 N          63.0611   90.2980   16.0687 N.ar    1  UNL1       -0.0559
      5 O          62.7406   89.0119   16.7710 O.2     1  UNL1       -0.3345
      6 C          64.5312   90.9743   13.9411 C.ar    1  UNL1        0.0435
      7 C          64.0372   91.0019   12.5251 C.ar    1  UNL1        0.0327
      8 C          64.6035   91.9934   11.5524 C.ar    1  UNL1        0.1400
      9 F          64.1096   92.0211   10.1363 F       1  UNL1       -0.2044
     10 C          65.6638   92.9574   11.9958 C.ar    1  UNL1        0.0562
     11 C          66.1578   92.9299   13.4119 C.ar    1  UNL1        0.1400
     12 F          67.2180   93.8938   13.8553 F       1  UNL1       -0.2044
     13 C          65.5915   91.9383   14.3845 C.ar    1  UNL1        0.0327
     14 C          66.2301   93.9490   11.0231 C.3     1  UNL1        0.1817
     15 S          67.2628   93.5150   10.0255 S.O2    1  UNL1       -0.0039
     16 C          68.2956   93.0811    9.0279 C.3     1  UNL1        0.1764
     17 O          66.7452   94.5289    9.0486 O.2     1  UNL1       -0.1726
     18 O          67.7805   92.5012   11.0023 O.2     1  UNL1       -0.1726
     19 C          62.2756   85.9157   17.2483 C.3     1  UNL1        0.0423
     20 C          63.4028   86.4470   16.4133 C.3     1  UNL1        0.1934
     21 O          64.4866   85.5236   15.9415 O.3     1  UNL1       -0.3493
     22 C          64.1754   84.4526   14.9384 C.3     1  UNL1        0.1159
     23 C          64.3708   84.7162   13.4747 C.3     1  UNL1        0.0320
     24 C          64.0596   83.6452   12.4717 C.3     1  UNL1        0.0297
     25 C          63.5531   82.3106   12.9323 C.3     1  UNL1        0.0933
     26 C          63.7484   82.5742   11.4686 C.3     1  UNL1        0.0329
     27 C          63.4373   81.5032   10.4656 C.3     1  UNL1        0.0716
     28 C          62.9308   80.1685   10.9262 C.3     1  UNL1        0.2908
     29 F          62.4320   78.7550   10.8720 F       1  UNL1       -0.2016
     30 F          62.9529   79.9413    9.4437 F       1  UNL1       -0.2016
     31 C          62.7354   79.9049   12.3898 C.3     1  UNL1        0.2082
     32 O          63.0466   80.9759   13.3930 O.3     1  UNL1       -0.3529
     33 C          63.3578   82.0469   14.3960 C.3     1  UNL1        0.0297
     34 C          63.6689   83.1179   15.3990 C.3     1  UNL1        0.0320
@<TRIPOS>BOND
     1    20    19    1
     2    20    21    1
     3    22    21    1
     4    22    23    1
     5    23    24    1
     6    25    24    1
     7    25    26    1
     8    26    27    1
     9    27    28    1
    10    28    29    1
    11    28    30    1
    12    28    31    1
    13    31    32    1
    14    25    33    1
    15    33    34    1
    16    20     1    1
    17     1     2   ar
    18     2     3   ar
    19     3     6    1
    20     6     7   ar
    21     7     8   ar
    22     8     9    1
    23     8    10   ar
    24    10    14    1
    25    14    15    1
    26    15    16    1
    27    15    17    2
    28    15    18    2
    29    10    11   ar
    30    11    12    1
    31    11    13   ar
    32     3     4   ar
    33     4     5   ar
    34    34    22    1
    35     5     1   ar
    36    32    25    1
    37    13     6   ar
@<TRIPOS>MOLECULE
*****
 34 37 0 0 0
SMALL
GASTEIGER

@<TRIPOS>ATOM
      1 C          60.5109   89.4613    9.0991 C.ar    1  UNL1        0.2637
      2 N          61.9514   89.8039    9.3390 N.ar    1  UNL1       -0.1887
      3 C          62.0579   90.4368   10.6948 C.ar    1  UNL1        0.2035
      4 N          60.6831   90.4853   11.2928 N.ar    1  UNL1       -0.0559
      5 O          59.7271   89.8825   10.3066 O.2     1  UNL1       -0.3345
      6 C          63.3178   90.9338   11.3393 C.ar    1  UNL1        0.0435
      7 C          63.7191   90.4254   12.6922 C.ar    1  UNL1        0.0327
      8 C          64.9791   90.9224   13.3368 C.ar    1  UNL1        0.1400
      9 F          65.3804   90.4141   14.6898 F       1  UNL1       -0.2044
     10 C          65.8377   91.9278   12.6284 C.ar    1  UNL1        0.0562
     11 C          65.4365   92.4362   11.2754 C.ar    1  UNL1        0.1400
     12 F          66.2952   93.4415   10.5670 F       1  UNL1       -0.2044
     13 C          64.1765   91.9392   10.6309 C.ar    1  UNL1        0.0327
     14 C          67.0978   92.4248   13.2730 C.3     1  UNL1        0.1817
     15 S          67.1206   92.7245   14.7426 S.O2    1  UNL1       -0.0039
     16 C          67.1434   93.0242   16.2122 C.3     1  UNL1        0.1764
     17 O          66.0866   93.7923   14.5409 O.2     1  UNL1       -0.1726
     18 O          68.1545   91.6566   14.9443 O.2     1  UNL1       -0.1726
     19 C          59.3605   89.6551    6.7776 C.3     1  UNL1        0.0423
     20 C          59.9523   88.8117    7.8678 C.3     1  UNL1        0.1934
     21 O          59.9855   87.3187    7.7268 O.3     1  UNL1       -0.3493
     22 C          60.8417   86.4975    8.6448 C.3     1  UNL1        0.1159
     23 C          61.8846   85.5808    8.0776 C.3     1  UNL1        0.0320
     24 C          62.7407   84.7596    8.9956 C.3     1  UNL1        0.0297
     25 C          62.5538   84.8551   10.4808 C.3     1  UNL1        0.0933
     26 C          63.5968   83.9383    9.9136 C.3     1  UNL1        0.0329
     27 C          64.4528   83.1171   10.8316 C.3     1  UNL1        0.0716
     28 C          64.2660   83.2127   12.3168 C.3     1  UNL1        0.2908
     29 F          64.4653   82.9593   13.7817 F       1  UNL1       -0.2016
     30 F          65.3782   82.2079   12.2583 F       1  UNL1       -0.2016
     31 C          63.2230   84.1294   12.8841 C.3     1  UNL1        0.2082
     32 O          62.3669   84.9507   11.9661 O.3     1  UNL1       -0.3529
     33 C          61.5108   85.7718   11.0481 C.3     1  UNL1        0.0297
     34 C          60.6548   86.5930   10.1301 C.3     1  UNL1        0.0320
@<TRIPOS>BOND
     1    20    19    1
     2    20    21    1
     3    22    21    1
     4    22    23    1
     5    23    24    1
     6    25    24    1
     7    25    26    1
     8    26    27    1
     9    27    28    1
    10    28    29    1
    11    28    30    1
    12    28    31    1
    13    31    32    1
    14    25    33    1
    15    33    34    1
    16    20     1    1
    17     1     2   ar
    18     2     3   ar
    19     3     6    1
    20     6     7   ar
    21     7     8   ar
    22     8     9    1
    23     8    10   ar
    24    10    14    1
    25    14    15    1
    26    15    16    1
    27    15    17    2
    28    15    18    2
    29    10    11   ar
    30    11    12    1
    31    11    13   ar
    32     3     4   ar
    33     4     5   ar
    34    34    22    1
    35     5     1   ar
    36    32    25    1
    37    13     6   ar
@<TRIPOS>MOLECULE
*****
 34 37 0 0 0
SMALL
GASTEIGER

@<TRIPOS>ATOM
      1 C          60.6060   89.2421    9.2439 C.ar    1  UNL1        0.2637
      2 N          62.0431   89.6122    9.4626 N.ar    1  UNL1       -0.1887
      3 C          62.1396   90.3450   10.7679 C.ar    1  UNL1        0.2035
      4 N          60.7622   90.4278   11.3559 N.ar    1  UNL1       -0.0559
      5 O          59.8144   89.7461   10.4141 O.2     1  UNL1       -0.3345
      6 C          63.3934   90.8979   11.3779 C.ar    1  UNL1        0.0435
      7 C          64.2481   91.8535   10.5993 C.ar    1  UNL1        0.0327
      8 C          65.5019   92.4064   11.2094 C.ar    1  UNL1        0.1400
      9 F          66.3566   93.3622   10.4307 F       1  UNL1       -0.2044
     10 C          65.9011   92.0037   12.5980 C.ar    1  UNL1        0.0562
     11 C          65.0465   91.0480   13.3767 C.ar    1  UNL1        0.1400
     12 F          65.4456   90.6452   14.7653 F       1  UNL1       -0.2044
     13 C          63.7926   90.4951   12.7666 C.ar    1  UNL1        0.0327
     14 C          67.1550   92.5566   13.2080 C.3     1  UNL1        0.1817
     15 S          67.2023   92.8653   14.6752 S.O2    1  UNL1       -0.0039
     16 C          67.2496   93.1739   16.1423 C.3     1  UNL1        0.1764
     17 O          66.1622   93.9293   14.4849 O.2     1  UNL1       -0.1726
     18 O          68.2424   91.8013   14.8655 O.2     1  UNL1       -0.1726
     19 C          58.8926   89.0574    7.2996 C.3     1  UNL1        0.0423
     20 C          60.0569   88.4985    8.0625 C.3     1  UNL1        0.1934
     21 O          60.6722   87.1961    7.6441 O.3     1  UNL1       -0.3493
     22 C          61.3690   86.3362    8.6565 C.3     1  UNL1        0.1159
     23 C          61.0011   86.4376   10.1071 C.3     1  UNL1        0.0320
     24 C          61.6979   85.5777   11.1195 C.3     1  UNL1        0.0297
     25 C          62.7627   84.6163   10.6813 C.3     1  UNL1        0.0933
     26 C          62.3948   84.7178   12.1320 C.3     1  UNL1        0.0329
     27 C          63.0916   83.8579   13.1443 C.3     1  UNL1        0.0716
     28 C          64.1563   82.8965   12.7061 C.3     1  UNL1        0.2908
     29 F          65.2218   81.8433   12.7807 F       1  UNL1       -0.2016
     30 F          64.1584   82.6322   14.1826 F       1  UNL1       -0.2016
     31 C          64.5243   82.7950   11.2555 C.3     1  UNL1        0.2082
     32 O          63.8274   83.6550   10.2430 O.3     1  UNL1       -0.3529
     33 C          63.1306   84.5149    9.2307 C.3     1  UNL1        0.0297
     34 C          62.4338   85.3748    8.2183 C.3     1  UNL1        0.0320
@<TRIPOS>BOND
     1    20    19    1
     2    20    21    1
     3    22    21    1
     4    22    23    1
     5    23    24    1
     6    25    24    1
     7    25    26    1
     8    26    27    1
     9    27    28    1
    10    28    29    1
    11    28    30    1
    12    28    31    1
    13    31    32    1
    14    25    33    1
    15    33    34    1
    16    20     1    1
    17     1     2   ar
    18     2     3   ar
    19     3     6    1
    20     6     7   ar
    21     7     8   ar
    22     8     9    1
    23     8    10   ar
    24    10    14    1
    25    14    15    1
    26    15    16    1
    27    15    17    2
    28    15    18    2
    29    10    11   ar
    30    11    12    1
    31    11    13   ar
    32     3     4   ar
    33     4     5   ar
    34    34    22    1
    35     5     1   ar
    36    32    25    1
    37    13     6   ar
@<TRIPOS>MOLECULE
*****
 34 37 0 0 0
SMALL
GASTEIGER

@<TRIPOS>ATOM
      1 C          63.6179   86.7461   15.4930 C.ar    1  UNL1        0.2637
      2 N          64.2495   87.6172   14.4479 N.ar    1  UNL1       -0.1887
      3 C          64.1081   89.0446   14.8868 C.ar    1  UNL1        0.2035
      4 N          63.3890   89.0557   16.2032 N.ar    1  UNL1       -0.0559
      5 O          63.0861   87.6352   16.5778 O.2     1  UNL1       -0.3345
      6 C          64.5994   90.2494   14.1404 C.ar    1  UNL1        0.0435
      7 C          65.6271   91.1486   14.7611 C.ar    1  UNL1        0.0327
      8 C          66.1184   92.3533   14.0146 C.ar    1  UNL1        0.1400
      9 F          67.1461   93.2526   14.6353 F       1  UNL1       -0.2044
     10 C          65.5821   92.6588   12.6476 C.ar    1  UNL1        0.0562
     11 C          64.5544   91.7596   12.0268 C.ar    1  UNL1        0.1400
     12 F          64.0181   92.0651   10.6597 F       1  UNL1       -0.2044
     13 C          64.0631   90.5549   12.7732 C.ar    1  UNL1        0.0327
     14 C          66.0735   93.8636   11.9011 C.3     1  UNL1        0.1817
     15 S          66.8489   93.6927   10.6285 S.O2    1  UNL1       -0.0039
     16 C          67.6242   93.5217    9.3558 C.3     1  UNL1        0.1764
     17 O          67.6871   92.6338   11.2814 O.2     1  UNL1       -0.1726
     18 O          66.0106   94.7515    9.9756 O.2     1  UNL1       -0.1726
     19 C          62.8296   84.5126   16.5607 C.3     1  UNL1        0.0423
     20 C          63.5330   85.2489   15.4592 C.3     1  UNL1        0.1934
     21 O          64.1515   84.4881   14.3241 O.3     1  UNL1       -0.3493
     22 C          63.6209   84.6563   12.9312 C.3     1  UNL1        0.1159
     23 C          64.3226   84.0033   11.7774 C.3     1  UNL1        0.0320
     24 C          63.7921   84.1716   10.3845 C.3     1  UNL1        0.0297
     25 C          62.5598   84.9928   10.1454 C.3     1  UNL1        0.0933
     26 C          63.2615   84.3398    8.9916 C.3     1  UNL1        0.0329
     27 C          62.7310   84.5080    7.5987 C.3     1  UNL1        0.0716
     28 C          61.4987   85.3293    7.3596 C.3     1  UNL1        0.2908
     29 F          60.3747   86.0052    6.6320 F       1  UNL1       -0.2016
     30 F          61.8100   84.9110    5.9531 F       1  UNL1       -0.2016
     31 C          60.7971   85.9823    8.5133 C.3     1  UNL1        0.2082
     32 O          61.3276   85.8140    9.9063 O.3     1  UNL1       -0.3529
     33 C          61.8582   85.6458   11.2992 C.3     1  UNL1        0.0297
     34 C          62.3887   85.4775   12.6920 C.3     1  UNL1        0.0320
@<TRIPOS>BOND
     1    20    19    1
     2    20    21    1
     3    22    21    1
     4    22    23    1
     5    23    24    1
     6    25    24    1
     7    25    26    1
     8    26    27    1
     9    27    28    1
    10    28    29    1
    11    28    30    1
    12    28    31    1
    13    31    32    1
    14    25    33    1
    15    33    34    1
    16    20     1    1
    17     1     2   ar
    18     2     3   ar
    19     3     6    1
    20     6     7   ar
    21     7     8   ar
    22     8     9    1
    23     8    10   ar
    24    10    14    1
    25    14    15    1
    26    15    16    1
    27    15    17    2
    28    15    18    2
    29    10    11   ar
    30    11    12    1
    31    11    13   ar
    32     3     4   ar
    33     4     5   ar
    34    34    22    1
    35     5     1   ar
    36    32    25    1
    37    13     6   ar
@<TRIPOS>MOLECULE
*****
 34 37 0 0 0
SMALL
GASTEIGER

@<TRIPOS>ATOM
      1 C          61.5855   88.8471   10.1250 C.ar    1  UNL1        0.2637
      2 N          62.1970   87.8518   11.0659 N.ar    1  UNL1       -0.1887
      3 C          62.0980   86.4950   10.4340 C.ar    1  UNL1        0.2035
      4 N          61.4253   86.6518    9.1025 N.ar    1  UNL1       -0.0559
      5 O          61.1086   88.1055    8.9115 O.2     1  UNL1       -0.3345
      6 C          62.5860   85.2075   11.0291 C.ar    1  UNL1        0.0435
      7 C          63.2820   84.1981   10.1650 C.ar    1  UNL1        0.0327
      8 C          63.7700   82.9106   10.7601 C.ar    1  UNL1        0.1400
      9 F          64.4660   81.9012    9.8960 F       1  UNL1       -0.2044
     10 C          63.5619   82.6325   12.2193 C.ar    1  UNL1        0.0562
     11 C          62.8659   83.6418   13.0835 C.ar    1  UNL1        0.1400
     12 F          62.6579   83.3637   14.5427 F       1  UNL1       -0.2044
     13 C          62.3780   84.9293   12.4884 C.ar    1  UNL1        0.0327
     14 C          64.0500   81.3449   12.8144 C.3     1  UNL1        0.1817
     15 S          63.0661   80.3019   13.2550 S.O2    1  UNL1       -0.0039
     16 C          62.0822   79.2589   13.6957 C.3     1  UNL1        0.1764
     17 O          62.6048   80.1380   11.8371 O.2     1  UNL1       -0.1726
     18 O          63.5274   80.4657   14.6729 O.2     1  UNL1       -0.1726
     19 C          60.1944   90.9034   10.8911 C.3     1  UNL1        0.0423
     20 C          61.4711   90.3247   10.3568 C.3     1  UNL1        0.1934
     21 O          62.6332   91.2236   10.0544 O.3     1  UNL1       -0.3493
     22 C          63.6830   91.4688   11.0974 C.3     1  UNL1        0.1159
     23 C          63.5149   90.9061   12.4776 C.3     1  UNL1        0.0320
     24 C          64.5647   91.1513   13.5205 C.3     1  UNL1        0.0297
     25 C          65.7826   91.9594   13.1832 C.3     1  UNL1        0.0933
     26 C          65.6145   91.3966   14.5635 C.3     1  UNL1        0.0329
     27 C          66.6643   91.6419   15.6064 C.3     1  UNL1        0.0716
     28 C          67.8822   92.4499   15.2692 C.3     1  UNL1        0.2908
     29 F          69.2008   93.1465   15.4307 F       1  UNL1       -0.2016
     30 F          68.1720   92.1290   16.7055 F       1  UNL1       -0.2016
     31 C          68.0504   93.0126   13.8890 C.3     1  UNL1        0.2082
     32 O          67.0005   92.7674   12.8460 O.3     1  UNL1       -0.3529
     33 C          65.9507   92.5221   11.8030 C.3     1  UNL1        0.0297
     34 C          64.9010   92.2768   10.7601 C.3     1  UNL1        0.0320
@<TRIPOS>BOND
     1    20    19    1
     2    20    21    1
     3    22    21    1
     4    22    23    1
     5    23    24    1
     6    25    24    1
     7    25    26    1
     8    26    27    1
     9    27    28    1
    10    28    29    1
    11    28    30    1
    12    28    31    1
    13    31    32    1
    14    25    33    1
    15    33    34    1
    16    20     1    1
    17     1     2   ar
    18     2     3   ar
    19     3     6    1
    20     6     7   ar
    21     7     8   ar
    22     8     9    1
    23     8    10   ar
    24    10    14    1
    25    14    15    1
    26    15    16    1
    27    15    17    2
    28    15    18    2
    29    10    11   ar
    30    11    12    1
    31    11    13   ar
    32     3     4   ar
    33     4     5   ar
    34    34    22    1
    35     5     1   ar
    36    32    25    1
    37    13     6   ar
@<TRIPOS>MOLECULE
*****
 34 37 0 0 0
SMALL
GASTEIGER

@<TRIPOS>ATOM
      1 C          63.9547   87.5934   15.0995 C.ar    1  UNL1        0.2637
      2 N          64.6226   88.4929   14.1021 N.ar    1  UNL1       -0.1887
      3 C          64.4240   89.9105   14.5504 C.ar    1  UNL1        0.2035
      4 N          63.6333   89.8871   15.8249 N.ar    1  UNL1       -0.0559
      5 O          63.3433   88.4551   16.1642 O.2     1  UNL1       -0.3345
      6 C          64.9276   91.1362   13.8476 C.ar    1  UNL1        0.0435
      7 C          64.4976   91.4233   12.4395 C.ar    1  UNL1        0.0327
      8 C          65.0012   92.6490   11.7367 C.ar    1  UNL1        0.1400
      9 F          64.5712   92.9362   10.3285 F       1  UNL1       -0.2044
     10 C          65.9348   93.5876   12.4419 C.ar    1  UNL1        0.0562
     11 C          66.3648   93.3006   13.8500 C.ar    1  UNL1        0.1400
     12 F          67.2984   94.2391   14.5552 F       1  UNL1       -0.2044
     13 C          65.8612   92.0748   14.5528 C.ar    1  UNL1        0.0327
     14 C          66.4384   94.8134   11.7390 C.3     1  UNL1        0.1817
     15 S          66.8359   94.7395   10.2945 S.O2    1  UNL1       -0.0039
     16 C          67.2334   94.6657    8.8500 C.3     1  UNL1        0.1764
     17 O          65.9351   95.8989    9.9873 O.2     1  UNL1       -0.1726
     18 O          67.7368   93.5801   10.6017 O.2     1  UNL1       -0.1726
     19 C          63.8241   85.2985   16.3105 C.3     1  UNL1        0.0423
     20 C          63.9066   86.0952   15.0422 C.3     1  UNL1        0.1934
     21 O          63.9411   85.3939   13.7168 O.3     1  UNL1       -0.3493
     22 C          63.1213   85.9121   12.5724 C.3     1  UNL1        0.1159
     23 C          62.4284   84.9525   11.6510 C.3     1  UNL1        0.0320
     24 C          61.6087   85.4708   10.5068 C.3     1  UNL1        0.0297
     25 C          61.4818   86.9487   10.2839 C.3     1  UNL1        0.0933
     26 C          60.7889   85.9890    9.3624 C.3     1  UNL1        0.0329
     27 C          59.9692   86.5073    8.2182 C.3     1  UNL1        0.0716
     28 C          59.8422   87.9852    7.9953 C.3     1  UNL1        0.2908
     29 F          59.4243   89.2868    7.3780 F       1  UNL1       -0.2016
     30 F          59.0043   87.4776    6.8595 F       1  UNL1       -0.2016
     31 C          60.5351   88.9449    8.9167 C.3     1  UNL1        0.2082
     32 O          61.3549   88.4266   10.0611 O.3     1  UNL1       -0.3529
     33 C          62.1746   87.9083   11.2053 C.3     1  UNL1        0.0297
     34 C          62.9943   87.3900   12.3496 C.3     1  UNL1        0.0320
@<TRIPOS>BOND
     1    20    19    1
     2    20    21    1
     3    22    21    1
     4    22    23    1
     5    23    24    1
     6    25    24    1
     7    25    26    1
     8    26    27    1
     9    27    28    1
    10    28    29    1
    11    28    30    1
    12    28    31    1
    13    31    32    1
    14    25    33    1
    15    33    34    1
    16    20     1    1
    17     1     2   ar
    18     2     3   ar
    19     3     6    1
    20     6     7   ar
    21     7     8   ar
    22     8     9    1
    23     8    10   ar
    24    10    14    1
    25    14    15    1
    26    15    16    1
    27    15    17    2
    28    15    18    2
    29    10    11   ar
    30    11    12    1
    31    11    13   ar
    32     3     4   ar
    33     4     5   ar
    34    34    22    1
    35     5     1   ar
    36    32    25    1
    37    13     6   ar
@<TRIPOS>MOLECULE
*****
 34 37 0 0 0
SMALL
GASTEIGER

@<TRIPOS>ATOM
      1 C          63.9383   87.5407   15.0913 C.ar    1  UNL1        0.2637
      2 N          64.6293   88.4425   14.1119 N.ar    1  UNL1       -0.1887
      3 C          64.3848   89.8606   14.5352 C.ar    1  UNL1        0.2035
      4 N          63.5427   89.8353   15.7762 N.ar    1  UNL1       -0.0559
      5 O          63.2668   88.4015   16.1199 O.2     1  UNL1       -0.3345
      6 C          64.8932   91.0885   13.8395 C.ar    1  UNL1        0.0435
      7 C          65.8365   92.0152   14.5475 C.ar    1  UNL1        0.0327
      8 C          66.3448   93.2431   13.8519 C.ar    1  UNL1        0.1400
      9 F          67.2882   94.1699   14.5599 F       1  UNL1       -0.2044
     10 C          65.9099   93.5441   12.4483 C.ar    1  UNL1        0.0562
     11 C          64.9666   92.6174   11.7402 C.ar    1  UNL1        0.1400
     12 F          64.5317   92.9185   10.3367 F       1  UNL1       -0.2044
     13 C          64.4582   91.3896   12.4359 C.ar    1  UNL1        0.0327
     14 C          66.4183   94.7721   11.7527 C.3     1  UNL1        0.1817
     15 S          66.7539   94.7216   10.2916 S.O2    1  UNL1       -0.0039
     16 C          67.0895   94.6711    8.8304 C.3     1  UNL1        0.1764
     17 O          67.7531   93.6351   10.5586 O.2     1  UNL1       -0.1726
     18 O          65.7548   95.8081   10.0245 O.2     1  UNL1       -0.1726
     19 C          63.8758   85.2559   16.3266 C.3     1  UNL1        0.0423
     20 C          63.9217   86.0414   15.0495 C.3     1  UNL1        0.1934
     21 O          63.9511   85.3275   13.7306 O.3     1  UNL1       -0.3493
     22 C          63.1301   85.8373   12.5834 C.3     1  UNL1        0.1159
     23 C          63.0138   87.3131   12.3417 C.3     1  UNL1        0.0320
     24 C          62.1928   87.8228   11.1945 C.3     1  UNL1        0.0297
     25 C          61.4880   86.8567   10.2890 C.3     1  UNL1        0.0933
     26 C          61.3718   88.3326   10.0473 C.3     1  UNL1        0.0329
     27 C          60.5508   88.8423    8.9001 C.3     1  UNL1        0.0716
     28 C          59.8460   87.8762    7.9946 C.3     1  UNL1        0.2908
     29 F          58.9986   87.3605    6.8695 F       1  UNL1       -0.2016
     30 F          59.4355   89.1730    7.3622 F       1  UNL1       -0.2016
     31 C          59.9622   86.4004    8.2363 C.3     1  UNL1        0.2082
     32 O          60.7833   85.8906    9.3835 O.3     1  UNL1       -0.3529
     33 C          61.6043   85.3809   10.5307 C.3     1  UNL1        0.0297
     34 C          62.4253   84.8712   11.6779 C.3     1  UNL1        0.0320
@<TRIPOS>BOND
     1    20    19    1
     2    20    21    1
     3    22    21    1
     4    22    23    1
     5    23    24    1
     6    25    24    1
     7    25    26    1
     8    26    27    1
     9    27    28    1
    10    28    29    1
    11    28    30    1
    12    28    31    1
    13    31    32    1
    14    25    33    1
    15    33    34    1
    16    20     1    1
    17     1     2   ar
    18     2     3   ar
    19     3     6    1
    20     6     7   ar
    21     7     8   ar
    22     8     9    1
    23     8    10   ar
    24    10    14    1
    25    14    15    1
    26    15    16    1
    27    15    17    2
    28    15    18    2
    29    10    11   ar
    30    11    12    1
    31    11    13   ar
    32     3     4   ar
    33     4     5   ar
    34    34    22    1
    35     5     1   ar
    36    32    25    1
    37    13     6   ar
@<TRIPOS>MOLECULE
*****
 34 37 0 0 0
SMALL
GASTEIGER

@<TRIPOS>ATOM
      1 C          59.3415   89.7273    6.4782 C.ar    1  UNL1        0.2637
      2 N          60.4266   90.2822    5.6037 N.ar    1  UNL1       -0.1887
      3 C          59.8136   91.3119    4.7014 C.ar    1  UNL1        0.2035
      4 N          58.3497   91.3934    5.0183 N.ar    1  UNL1       -0.0559
      5 O          58.0580   90.4141    6.1164 O.2     1  UNL1       -0.3345
      6 C          60.5375   92.1185    3.6644 C.ar    1  UNL1        0.0435
      7 C          59.8202   93.2116    2.9292 C.ar    1  UNL1        0.0327
      8 C          60.5441   94.0182    1.8921 C.ar    1  UNL1        0.1400
      9 F          59.8268   95.1114    1.1569 F       1  UNL1       -0.2044
     10 C          61.9851   93.7317    1.5904 C.ar    1  UNL1        0.0562
     11 C          62.7025   92.6386    2.3256 C.ar    1  UNL1        0.1400
     12 F          64.1435   92.3521    2.0238 F       1  UNL1       -0.2044
     13 C          61.9786   91.8320    3.3626 C.ar    1  UNL1        0.0327
     14 C          62.7090   94.5384    0.5533 C.3     1  UNL1        0.1817
     15 S          63.8539   95.4207    0.9540 S.O2    1  UNL1       -0.0039
     16 C          64.9989   96.3031    1.3546 C.3     1  UNL1        0.1764
     17 O          62.9286   96.2320    1.8117 O.2     1  UNL1       -0.1726
     18 O          64.7793   94.6095    0.0962 O.2     1  UNL1       -0.1726
     19 C          58.7706   87.3714    7.4130 C.3     1  UNL1        0.0423
     20 C          59.5104   88.6711    7.5298 C.3     1  UNL1        0.1934
     21 O          60.4190   88.9145    8.6982 O.3     1  UNL1       -0.3493
     22 C          61.0709   87.7572    9.3952 C.3     1  UNL1        0.1159
     23 C          61.9387   86.8086    8.6227 C.3     1  UNL1        0.0320
     24 C          62.5906   85.6514    9.3197 C.3     1  UNL1        0.0297
     25 C          62.3746   85.4428   10.7894 C.3     1  UNL1        0.0933
     26 C          63.2425   84.4941   10.0168 C.3     1  UNL1        0.0329
     27 C          63.8943   83.3369   10.7139 C.3     1  UNL1        0.0716
     28 C          63.6783   83.1283   12.1835 C.3     1  UNL1        0.2908
     29 F          63.7754   82.5165   13.5495 F       1  UNL1       -0.2016
     30 F          64.5799   81.9672   11.8853 F       1  UNL1       -0.2016
     31 C          62.8104   84.0770   12.9561 C.3     1  UNL1        0.2082
     32 O          62.1585   85.2342   12.2590 O.3     1  UNL1       -0.3529
     33 C          61.5067   86.3915   11.5619 C.3     1  UNL1        0.0297
     34 C          60.8549   87.5487   10.8649 C.3     1  UNL1        0.0320
@<TRIPOS>BOND
     1    20    19    1
     2    20    21    1
     3    22    21    1
     4    22    23    1
     5    23    24    1
     6    25    24    1
     7    25    26    1
     8    26    27    1
     9    27    28    1
    10    28    29    1
    11    28    30    1
    12    28    31    1
    13    31    32    1
    14    25    33    1
    15    33    34    1
    16    20     1    1
    17     1     2   ar
    18     2     3   ar
    19     3     6    1
    20     6     7   ar
    21     7     8   ar
    22     8     9    1
    23     8    10   ar
    24    10    14    1
    25    14    15    1
    26    15    16    1
    27    15    17    2
    28    15    18    2
    29    10    11   ar
    30    11    12    1
    31    11    13   ar
    32     3     4   ar
    33     4     5   ar
    34    34    22    1
    35     5     1   ar
    36    32    25    1
    37    13     6   ar
