@<TRIPOS>MOLECULE
*****
 36 39 0 0 0
SMALL
GASTEIGER

@<TRIPOS>ATOM
      1 C          63.1681   88.9020   12.5871 C.2     1  UNL1        0.0732
      2 C          64.0732   88.5732   13.7374 C.2     1  UNL1        0.1887
      3 O          64.7188   89.5623   14.6619 O.2     1  UNL1       -0.5020
      4 C          64.2192   87.0817   13.8006 C.2     1  UNL1        0.2869
      5 O          65.0365   86.3174   14.7995 O.2     1  UNL1       -0.2662
      6 N          63.4044   86.4886   12.6895 N.am    1  UNL1       -0.2463
      7 C          62.7549   87.6136   11.9396 C.3     1  UNL1        0.1338
      8 H          64.5690   90.4798   14.5450 H       1  UNL1        0.2924
      9 C          63.2639   85.0271   12.3823 C.ar    1  UNL1        0.0548
     10 C          63.6688   84.5011   11.0372 C.ar    1  UNL1        0.0150
     11 C          63.5283   83.0397   10.7301 C.ar    1  UNL1        0.0029
     12 C          62.9829   82.1042   11.7681 C.ar    1  UNL1        0.0210
     13 C          62.5781   82.6302   13.1132 C.ar    1  UNL1        0.0029
     14 C          62.7186   84.0916   13.4203 C.ar    1  UNL1        0.0150
     15 C          62.8424   80.6427   11.4609 C.ar    1  UNL1        0.1231
     16 C          62.9470   80.0130   10.1034 C.ar    1  UNL1        0.0658
     17 C          62.7419   78.5355   10.2607 C.ar    1  UNL1        0.2138
     18 O          62.5106   78.2519   11.7155 O.2     1  UNL1       -0.3502
     19 N          62.5728   79.5543   12.4572 N.ar    1  UNL1       -0.0768
     20 C          61.8507   87.4747   10.7508 C.ar    1  UNL1        0.0344
     21 C          62.3977   86.9745    9.4468 C.ar    1  UNL1        0.0007
     22 C          61.4936   86.8356    8.2580 C.ar    1  UNL1       -0.0001
     23 C          60.0423   87.1969    8.3732 C.ar    1  UNL1        0.0031
     24 C          59.4953   87.6972    9.6773 C.ar    1  UNL1        0.0366
     25 C          60.3994   87.8361   10.8661 C.ar    1  UNL1        0.1365
     26 O          59.8524   88.3363   12.1700 O.3     1  UNL1       -0.4730
     27 C          58.4794   88.9379   12.2260 C.3     1  UNL1        0.2370
     28 C          57.5478   88.5777   13.3450 C.3     1  UNL1        0.1847
     29 O          56.1152   88.2442   13.0504 O.3     1  UNL1       -0.3784
     30 H          55.6632   89.0322   12.7102 H       1  UNL1        0.2106
     31 C          62.7499   90.2776   12.1596 C.2     1  UNL1        0.1732
     32 O          61.3712   90.7753   12.4785 O.2     1  UNL1       -0.2915
     33 C          63.0832   90.7384   10.1160 C.3     1  UNL1        0.0077
     34 C          63.7102   91.1554   11.4132 C.3     1  UNL1        0.0554
     35 C          64.3372   91.5725   12.7105 C.3     1  UNL1        0.0077
     36 C          64.6705   92.0333   10.6668 C.3     1  UNL1        0.0077
@<TRIPOS>BOND
     1    33    34    1
     2    34    35    1
     3    34    36    1
     4    34    31    1
     5    31    32    2
     6    31     1    1
     7     1     2    2
     8     2     3    1
     9     2     4    1
    10     4     5    2
    11     4     6   am
    12     6     9    1
    13     9    10   ar
    14    10    11   ar
    15    11    12   ar
    16    12    15    1
    17    15    16   ar
    18    16    17   ar
    19    17    18   ar
    20    18    19   ar
    21    12    13   ar
    22    13    14   ar
    23     6     7    1
    24     7    20    1
    25    20    21   ar
    26    21    22   ar
    27    22    23   ar
    28    23    24   ar
    29    24    25   ar
    30    25    26    1
    31    26    27    1
    32    27    28    1
    33    28    29    1
    34     7     1    1
    35    25    20   ar
    36    14     9   ar
    37    19    15   ar
    38     3     8    1
    39    29    30    1
@<TRIPOS>MOLECULE
*****
 36 39 0 0 0
SMALL
GASTEIGER

@<TRIPOS>ATOM
      1 C          62.6486   83.6789   13.5165 C.2     1  UNL1        0.0732
      2 C          62.8987   83.8814   14.9816 C.2     1  UNL1        0.1887
      3 O          62.7294   82.8484   16.0560 O.2     1  UNL1       -0.5020
      4 C          63.3478   85.2982   15.1837 C.2     1  UNL1        0.2869
      5 O          63.7065   85.9308   16.4956 O.2     1  UNL1       -0.2662
      6 N          63.3754   85.9714   13.8435 N.am    1  UNL1       -0.2463
      7 C          62.9432   84.9706   12.8131 C.3     1  UNL1        0.1338
      8 H          62.4427   81.9844   15.8342 H       1  UNL1        0.2924
      9 C          63.7664   87.3954   13.5799 C.ar    1  UNL1        0.0548
     10 C          63.3311   88.0705   12.3132 C.ar    1  UNL1        0.0150
     11 C          63.7221   89.4944   12.0497 C.ar    1  UNL1        0.0029
     12 C          64.5484   90.2432   13.0530 C.ar    1  UNL1        0.0210
     13 C          64.9837   89.5681   14.3197 C.ar    1  UNL1        0.0029
     14 C          64.5927   88.1442   14.5832 C.ar    1  UNL1        0.0150
     15 C          64.9395   91.6672   12.7894 C.ar    1  UNL1        0.1231
     16 C          64.9935   92.3325   11.4461 C.ar    1  UNL1        0.0658
     17 C          65.4325   93.7524   11.6493 C.ar    1  UNL1        0.2138
     18 O          65.6498   93.9646   13.1183 O.2     1  UNL1       -0.3502
     19 N          65.3451   92.6759   13.8229 N.ar    1  UNL1       -0.0768
     20 C          62.8262   85.2179   11.3383 C.ar    1  UNL1        0.0344
     21 C          63.7452   84.5141   10.3844 C.ar    1  UNL1        0.0007
     22 C          63.6282   84.7615    8.9096 C.ar    1  UNL1       -0.0001
     23 C          62.5921   85.7128    8.3886 C.ar    1  UNL1        0.0031
     24 C          61.6730   86.4168    9.3426 C.ar    1  UNL1        0.0366
     25 C          61.7900   86.1694   10.8174 C.ar    1  UNL1        0.1365
     26 O          60.8710   86.8733   11.7711 O.3     1  UNL1       -0.4730
     27 C          59.8578   87.8506   11.2531 C.3     1  UNL1        0.2370
     28 C          59.9567   89.3006   11.6236 C.3     1  UNL1        0.1847
     29 O          60.2705   89.6941   13.0367 O.3     1  UNL1       -0.3784
     30 H          59.5396   89.4281   13.6163 H       1  UNL1        0.2106
     31 C          62.1853   82.4078   12.8686 C.2     1  UNL1        0.1732
     32 O          61.5050   82.4518   11.5324 O.2     1  UNL1       -0.2915
     33 C          63.8499   81.1269   13.1655 C.3     1  UNL1        0.0077
     34 C          62.4023   81.0928   13.5568 C.3     1  UNL1        0.0554
     35 C          60.9546   81.0587   13.9480 C.3     1  UNL1        0.0077
     36 C          62.6192   79.7778   14.2450 C.3     1  UNL1        0.0077
@<TRIPOS>BOND
     1    33    34    1
     2    34    35    1
     3    34    36    1
     4    34    31    1
     5    31    32    2
     6    31     1    1
     7     1     2    2
     8     2     3    1
     9     2     4    1
    10     4     5    2
    11     4     6   am
    12     6     9    1
    13     9    10   ar
    14    10    11   ar
    15    11    12   ar
    16    12    15    1
    17    15    16   ar
    18    16    17   ar
    19    17    18   ar
    20    18    19   ar
    21    12    13   ar
    22    13    14   ar
    23     6     7    1
    24     7    20    1
    25    20    21   ar
    26    21    22   ar
    27    22    23   ar
    28    23    24   ar
    29    24    25   ar
    30    25    26    1
    31    26    27    1
    32    27    28    1
    33    28    29    1
    34     7     1    1
    35    25    20   ar
    36    14     9   ar
    37    19    15   ar
    38     3     8    1
    39    29    30    1
@<TRIPOS>MOLECULE
*****
 36 39 0 0 0
SMALL
GASTEIGER

@<TRIPOS>ATOM
      1 C          63.4938   94.3410   -1.5240 C.2     1  UNL1        0.0732
      2 C          63.6971   94.0481   -2.9811 C.2     1  UNL1        0.1887
      3 O          64.9944   93.6692   -3.6316 O.2     1  UNL1       -0.5020
      4 C          62.3751   94.2005   -3.6733 C.2     1  UNL1        0.2869
      5 O          62.1184   94.0009   -5.1376 O.2     1  UNL1       -0.2662
      6 N          61.3549   94.5877   -2.6441 N.am    1  UNL1       -0.2463
      7 C          62.0463   94.6746   -1.3158 C.3     1  UNL1        0.1338
      8 H          65.7737   93.5978   -3.1162 H       1  UNL1        0.2924
      9 C          59.8988   94.8432   -2.8985 C.ar    1  UNL1        0.0548
     10 C          59.4221   96.2341   -3.1953 C.ar    1  UNL1        0.0150
     11 C          57.9661   96.4896   -3.4498 C.ar    1  UNL1        0.0029
     12 C          56.9868   95.3541   -3.4074 C.ar    1  UNL1        0.0210
     13 C          57.4635   93.9632   -3.1107 C.ar    1  UNL1        0.0029
     14 C          58.9195   93.7078   -2.8562 C.ar    1  UNL1        0.0150
     15 C          55.5308   95.6096   -3.6619 C.ar    1  UNL1        0.1231
     16 C          54.5150   96.0186   -2.6367 C.ar    1  UNL1        0.0658
     17 C          53.1914   96.1627   -3.3274 C.ar    1  UNL1        0.2138
     18 O          53.3890   95.8429   -4.7795 O.2     1  UNL1       -0.3502
     19 N          54.8348   95.5011   -4.9863 N.ar    1  UNL1       -0.0768
     20 C          61.4031   95.0321   -0.0087 C.ar    1  UNL1        0.0344
     21 C          61.0543   96.4601    0.2898 C.ar    1  UNL1        0.0007
     22 C          60.4112   96.8176    1.5969 C.ar    1  UNL1       -0.0001
     23 C          60.1168   95.7472    2.6056 C.ar    1  UNL1        0.0031
     24 C          60.4656   94.3191    2.3071 C.ar    1  UNL1        0.0366
     25 C          61.1088   93.9616    1.0000 C.ar    1  UNL1        0.1365
     26 O          61.4576   92.5336    0.7016 O.3     1  UNL1       -0.4730
     27 C          61.9810   91.6458    1.7915 C.3     1  UNL1        0.2370
     28 C          63.1793   92.0654    2.5901 C.3     1  UNL1        0.1847
     29 O          63.8842   91.0706    3.4639 O.3     1  UNL1       -0.3784
     30 H          63.2952   90.7994    4.1854 H       1  UNL1        0.2106
     31 C          64.5523   94.3065   -0.4617 C.2     1  UNL1        0.1732
     32 O          65.1538   92.9973   -0.0446 O.2     1  UNL1       -0.2915
     33 C          64.6429   95.0312    1.5299 C.3     1  UNL1        0.0077
     34 C          65.0093   95.5813    0.1834 C.3     1  UNL1        0.0554
     35 C          65.3758   96.1313   -1.1632 C.3     1  UNL1        0.0077
     36 C          65.4663   96.8560    0.8284 C.3     1  UNL1        0.0077
@<TRIPOS>BOND
     1    33    34    1
     2    34    35    1
     3    34    36    1
     4    34    31    1
     5    31    32    2
     6    31     1    1
     7     1     2    2
     8     2     3    1
     9     2     4    1
    10     4     5    2
    11     4     6   am
    12     6     9    1
    13     9    10   ar
    14    10    11   ar
    15    11    12   ar
    16    12    15    1
    17    15    16   ar
    18    16    17   ar
    19    17    18   ar
    20    18    19   ar
    21    12    13   ar
    22    13    14   ar
    23     6     7    1
    24     7    20    1
    25    20    21   ar
    26    21    22   ar
    27    22    23   ar
    28    23    24   ar
    29    24    25   ar
    30    25    26    1
    31    26    27    1
    32    27    28    1
    33    28    29    1
    34     7     1    1
    35    25    20   ar
    36    14     9   ar
    37    19    15   ar
    38     3     8    1
    39    29    30    1
@<TRIPOS>MOLECULE
*****
 36 39 0 0 0
SMALL
GASTEIGER

@<TRIPOS>ATOM
      1 C          63.0890   95.6598   -2.3883 C.2     1  UNL1        0.0732
      2 C          63.0737   95.7124   -3.8873 C.2     1  UNL1        0.1887
      3 O          64.2780   95.7268   -4.7814 O.2     1  UNL1       -0.5020
      4 C          61.6426   95.7481   -4.3352 C.2     1  UNL1        0.2869
      5 O          61.1645   95.8045   -5.7558 O.2     1  UNL1       -0.2662
      6 N          60.7735   95.7176   -3.1130 N.am    1  UNL1       -0.2463
      7 C          61.6674   95.6630   -1.9098 C.3     1  UNL1        0.1338
      8 H          65.1378   95.7018   -4.4097 H       1  UNL1        0.2924
      9 C          59.2736   95.7380   -3.0970 C.ar    1  UNL1        0.0548
     10 C          58.5013   94.6827   -3.8316 C.ar    1  UNL1        0.0150
     11 C          57.0015   94.7032   -3.8156 C.ar    1  UNL1        0.0029
     12 C          56.2741   95.7789   -3.0648 C.ar    1  UNL1        0.0210
     13 C          57.0465   96.8342   -2.3301 C.ar    1  UNL1        0.0029
     14 C          58.5462   96.8137   -2.3462 C.ar    1  UNL1        0.0150
     15 C          54.7743   95.7993   -3.0487 C.ar    1  UNL1        0.1231
     16 C          53.9041   95.6962   -1.8313 C.ar    1  UNL1        0.0658
     17 C          52.4734   95.7596   -2.2774 C.ar    1  UNL1        0.2138
     18 O          52.4594   95.9019   -3.7706 O.2     1  UNL1       -0.3502
     19 N          53.8814   95.9264   -4.2473 N.ar    1  UNL1       -0.0768
     20 C          61.2186   95.6193   -0.4792 C.ar    1  UNL1        0.0344
     21 C          61.2985   96.8530    0.3701 C.ar    1  UNL1        0.0007
     22 C          60.8497   96.8093    1.8007 C.ar    1  UNL1       -0.0001
     23 C          60.3209   95.5317    2.3821 C.ar    1  UNL1        0.0031
     24 C          60.2410   94.2978    1.5328 C.ar    1  UNL1        0.0366
     25 C          60.6899   94.3415    0.1022 C.ar    1  UNL1        0.1365
     26 O          60.6099   93.1077   -0.7469 O.3     1  UNL1       -0.4730
     27 C          59.4355   92.1834   -0.6183 C.3     1  UNL1        0.2370
     28 C          58.0518   92.6840   -0.9089 C.3     1  UNL1        0.1847
     29 O          57.0283   91.7596   -1.4990 O.3     1  UNL1       -0.3784
     30 H          57.3004   91.5054   -2.3947 H       1  UNL1        0.2106
     31 C          64.3114   95.6124   -1.5202 C.2     1  UNL1        0.1732
     32 O          65.4512   96.5528   -1.7778 O.2     1  UNL1       -0.2915
     33 C          64.0725   93.5117   -1.3475 C.3     1  UNL1        0.0077
     34 C          64.3940   94.6245   -0.3945 C.3     1  UNL1        0.0554
     35 C          64.7155   95.7373    0.5585 C.3     1  UNL1        0.0077
     36 C          64.4766   93.6366    0.7312 C.3     1  UNL1        0.0077
@<TRIPOS>BOND
     1    33    34    1
     2    34    35    1
     3    34    36    1
     4    34    31    1
     5    31    32    2
     6    31     1    1
     7     1     2    2
     8     2     3    1
     9     2     4    1
    10     4     5    2
    11     4     6   am
    12     6     9    1
    13     9    10   ar
    14    10    11   ar
    15    11    12   ar
    16    12    15    1
    17    15    16   ar
    18    16    17   ar
    19    17    18   ar
    20    18    19   ar
    21    12    13   ar
    22    13    14   ar
    23     6     7    1
    24     7    20    1
    25    20    21   ar
    26    21    22   ar
    27    22    23   ar
    28    23    24   ar
    29    24    25   ar
    30    25    26    1
    31    26    27    1
    32    27    28    1
    33    28    29    1
    34     7     1    1
    35    25    20   ar
    36    14     9   ar
    37    19    15   ar
    38     3     8    1
    39    29    30    1
@<TRIPOS>MOLECULE
*****
 36 39 0 0 0
SMALL
GASTEIGER

@<TRIPOS>ATOM
      1 C          59.1510   94.7599   -5.5524 C.2     1  UNL1        0.0732
      2 C          60.5932   94.9932   -5.8925 C.2     1  UNL1        0.1887
      3 O          61.1176   95.5232   -7.1941 O.2     1  UNL1       -0.5020
      4 C          61.4190   94.6033   -4.7025 C.2     1  UNL1        0.2869
      5 O          62.9141   94.6750   -4.6051 O.2     1  UNL1       -0.2662
      6 N          60.4871   94.1291   -3.6270 N.am    1  UNL1       -0.2463
      7 C          59.0854   94.2259   -4.1523 C.3     1  UNL1        0.1338
      8 H          60.5232   95.7412   -7.8847 H       1  UNL1        0.2924
      9 C          60.8867   93.6433   -2.2652 C.ar    1  UNL1        0.0548
     10 C          60.1223   92.5305   -1.6116 C.ar    1  UNL1        0.0150
     11 C          60.5220   92.0448   -0.2499 C.ar    1  UNL1        0.0029
     12 C          61.6861   92.6719    0.4582 C.ar    1  UNL1        0.0210
     13 C          62.4506   93.7848   -0.1953 C.ar    1  UNL1        0.0029
     14 C          62.0509   94.2705   -1.5570 C.ar    1  UNL1        0.0150
     15 C          62.0858   92.1862    1.8200 C.ar    1  UNL1        0.1231
     16 C          61.2082   92.1504    3.0360 C.ar    1  UNL1        0.0658
     17 C          62.0132   91.5930    4.1724 C.ar    1  UNL1        0.2138
     18 O          63.3883   91.2844    3.6587 O.2     1  UNL1       -0.3502
     19 N          63.4332   91.6509    2.2049 N.ar    1  UNL1       -0.0768
     20 C          57.8373   93.8540   -3.4081 C.ar    1  UNL1        0.0344
     21 C          57.3077   92.4528   -3.4847 C.ar    1  UNL1        0.0007
     22 C          56.0595   92.0809   -2.7405 C.ar    1  UNL1       -0.0001
     23 C          55.3409   93.1103   -1.9196 C.ar    1  UNL1        0.0031
     24 C          55.8706   94.5116   -1.8430 C.ar    1  UNL1        0.0366
     25 C          57.1187   94.8835   -2.5872 C.ar    1  UNL1        0.1365
     26 O          57.6482   96.2847   -2.5105 O.3     1  UNL1       -0.4730
     27 C          58.0717   96.8553   -1.1894 C.3     1  UNL1        0.2370
     28 C          59.1304   96.1671   -0.3799 C.3     1  UNL1        0.1847
     29 O          58.7800   94.9653    0.4466 O.3     1  UNL1       -0.3784
     30 H          58.1761   95.2278    1.1589 H       1  UNL1        0.2106
     31 C          57.9800   95.0158   -6.4542 C.2     1  UNL1        0.1732
     32 O          57.7895   96.3702   -7.0701 O.2     1  UNL1       -0.2915
     33 C          58.0914   93.1074   -7.3738 C.3     1  UNL1        0.0077
     34 C          56.9994   93.9173   -6.7401 C.3     1  UNL1        0.0554
     35 C          55.9074   94.7272   -6.1065 C.3     1  UNL1        0.0077
     36 C          56.0188   92.8188   -7.0260 C.3     1  UNL1        0.0077
@<TRIPOS>BOND
     1    33    34    1
     2    34    35    1
     3    34    36    1
     4    34    31    1
     5    31    32    2
     6    31     1    1
     7     1     2    2
     8     2     3    1
     9     2     4    1
    10     4     5    2
    11     4     6   am
    12     6     9    1
    13     9    10   ar
    14    10    11   ar
    15    11    12   ar
    16    12    15    1
    17    15    16   ar
    18    16    17   ar
    19    17    18   ar
    20    18    19   ar
    21    12    13   ar
    22    13    14   ar
    23     6     7    1
    24     7    20    1
    25    20    21   ar
    26    21    22   ar
    27    22    23   ar
    28    23    24   ar
    29    24    25   ar
    30    25    26    1
    31    26    27    1
    32    27    28    1
    33    28    29    1
    34     7     1    1
    35    25    20   ar
    36    14     9   ar
    37    19    15   ar
    38     3     8    1
    39    29    30    1
@<TRIPOS>MOLECULE
*****
 36 39 0 0 0
SMALL
GASTEIGER

@<TRIPOS>ATOM
      1 C          62.6100   83.6611   13.6965 C.2     1  UNL1        0.0732
      2 C          62.9672   83.8310   15.1435 C.2     1  UNL1        0.1887
      3 O          62.8603   82.7790   16.2074 O.2     1  UNL1       -0.5020
      4 C          63.4501   85.2375   15.3396 C.2     1  UNL1        0.2869
      5 O          63.9108   85.8390   16.6342 O.2     1  UNL1       -0.2662
      6 N          63.3913   85.9369   14.0140 N.am    1  UNL1       -0.2463
      7 C          62.8721   84.9626   12.9985 C.3     1  UNL1        0.1338
      8 H          62.5461   81.9234   15.9904 H       1  UNL1        0.2924
      9 C          63.7830   87.3607   13.7501 C.ar    1  UNL1        0.0548
     10 C          64.6611   88.0897   14.7235 C.ar    1  UNL1        0.0150
     11 C          65.0527   89.5134   14.4596 C.ar    1  UNL1        0.0029
     12 C          64.5662   90.2081   13.2224 C.ar    1  UNL1        0.0210
     13 C          63.6881   89.4791   12.2490 C.ar    1  UNL1        0.0029
     14 C          63.2965   88.0554   12.5129 C.ar    1  UNL1        0.0150
     15 C          64.9579   91.6319   12.9585 C.ar    1  UNL1        0.1231
     16 C          65.0106   92.2973   11.6152 C.ar    1  UNL1        0.0658
     17 C          65.4509   93.7168   11.8181 C.ar    1  UNL1        0.2138
     18 O          65.6702   93.9287   13.2868 O.2     1  UNL1       -0.3502
     19 N          65.3655   92.6401   13.9916 N.ar    1  UNL1       -0.0768
     20 C          62.6534   85.2410   11.5409 C.ar    1  UNL1        0.0344
     21 C          61.5573   86.1701   11.1109 C.ar    1  UNL1        0.0007
     22 C          61.3386   86.4485    9.6532 C.ar    1  UNL1       -0.0001
     23 C          62.2161   85.7976    8.6255 C.ar    1  UNL1        0.0031
     24 C          63.3124   84.8683    9.0555 C.ar    1  UNL1        0.0366
     25 C          63.5311   84.5900   10.5131 C.ar    1  UNL1        0.1365
     26 O          64.6272   83.6608   10.9430 O.3     1  UNL1       -0.4730
     27 C          64.6830   82.2641   10.3989 C.3     1  UNL1        0.2370
     28 C          63.4327   81.6035    9.8989 C.3     1  UNL1        0.1847
     29 O          63.0738   80.2246   10.3680 O.3     1  UNL1       -0.3784
     30 H          63.7329   79.5910   10.0438 H       1  UNL1        0.2106
     31 C          62.0832   82.4094   13.0595 C.2     1  UNL1        0.1732
     32 O          61.3486   82.4842   11.7539 O.2     1  UNL1       -0.2915
     33 C          63.7645   81.1811   13.4650 C.3     1  UNL1        0.0077
     34 C          62.2911   81.0829   13.7281 C.3     1  UNL1        0.0554
     35 C          60.8176   80.9846   13.9912 C.3     1  UNL1        0.0077
     36 C          62.4989   79.7563   14.3967 C.3     1  UNL1        0.0077
@<TRIPOS>BOND
     1    33    34    1
     2    34    35    1
     3    34    36    1
     4    34    31    1
     5    31    32    2
     6    31     1    1
     7     1     2    2
     8     2     3    1
     9     2     4    1
    10     4     5    2
    11     4     6   am
    12     6     9    1
    13     9    10   ar
    14    10    11   ar
    15    11    12   ar
    16    12    15    1
    17    15    16   ar
    18    16    17   ar
    19    17    18   ar
    20    18    19   ar
    21    12    13   ar
    22    13    14   ar
    23     6     7    1
    24     7    20    1
    25    20    21   ar
    26    21    22   ar
    27    22    23   ar
    28    23    24   ar
    29    24    25   ar
    30    25    26    1
    31    26    27    1
    32    27    28    1
    33    28    29    1
    34     7     1    1
    35    25    20   ar
    36    14     9   ar
    37    19    15   ar
    38     3     8    1
    39    29    30    1
@<TRIPOS>MOLECULE
*****
 36 39 0 0 0
SMALL
GASTEIGER

@<TRIPOS>ATOM
      1 C          62.2165   88.8357   11.2509 C.2     1  UNL1        0.0732
      2 C          62.2167   89.9672   10.2660 C.2     1  UNL1        0.1887
      3 O          61.3565   90.0704    9.0416 O.2     1  UNL1       -0.5020
      4 C          63.2281   90.9773   10.7208 C.2     1  UNL1        0.2869
      5 O          63.5569   92.2679   10.0309 O.2     1  UNL1       -0.2662
      6 N          63.8530   90.4700   11.9866 N.am    1  UNL1       -0.2463
      7 C          63.2278   89.1465   12.3142 C.3     1  UNL1        0.1338
      8 H          60.7497   89.3867    8.8363 H       1  UNL1        0.2924
      9 C          64.9164   91.1645   12.7848 C.ar    1  UNL1        0.0548
     10 C          65.2091   92.6155   12.5418 C.ar    1  UNL1        0.0150
     11 C          66.2725   93.3099   13.3399 C.ar    1  UNL1        0.0029
     12 C          67.0431   92.5533   14.3809 C.ar    1  UNL1        0.0210
     13 C          66.7504   91.1024   14.6239 C.ar    1  UNL1        0.0029
     14 C          65.6870   90.4080   13.8258 C.ar    1  UNL1        0.0150
     15 C          68.1065   93.2478   15.1791 C.ar    1  UNL1        0.1231
     16 C          69.5003   92.7463   15.4155 C.ar    1  UNL1        0.0658
     17 C          70.2181   93.7542   16.2634 C.ar    1  UNL1        0.2138
     18 O          69.2678   94.8787   16.5510 O.2     1  UNL1       -0.3502
     19 N          67.9629   94.5657   15.8809 N.ar    1  UNL1       -0.0768
     20 C          63.5562   88.2850   13.4974 C.ar    1  UNL1        0.0344
     21 C          64.1308   86.9149   13.2912 C.ar    1  UNL1        0.0007
     22 C          64.4592   86.0533   14.4743 C.ar    1  UNL1       -0.0001
     23 C          64.2130   86.5619   15.8638 C.ar    1  UNL1        0.0031
     24 C          63.6384   87.9321   16.0701 C.ar    1  UNL1        0.0366
     25 C          63.3100   88.7937   14.8869 C.ar    1  UNL1        0.1365
     26 O          62.7354   90.1637   15.0932 O.3     1  UNL1       -0.4730
     27 C          63.0213   90.9140   16.3603 C.3     1  UNL1        0.2370
     28 C          64.2427   91.7788   16.4605 C.3     1  UNL1        0.1847
     29 O          64.1797   93.0831   17.1987 O.3     1  UNL1       -0.3784
     30 H          63.5878   93.6919   16.7297 H       1  UNL1        0.2106
     31 C          61.3561   87.6088   11.1840 C.2     1  UNL1        0.1732
     32 O          59.9465   87.6525   11.6949 O.2     1  UNL1       -0.2915
     33 C          62.1122   87.0263    9.2895 C.3     1  UNL1        0.0077
     34 C          61.9053   86.3382   10.6062 C.3     1  UNL1        0.0554
     35 C          61.6984   85.6500   11.9228 C.3     1  UNL1        0.0077
     36 C          62.4545   85.0676   10.0284 C.3     1  UNL1        0.0077
@<TRIPOS>BOND
     1    33    34    1
     2    34    35    1
     3    34    36    1
     4    34    31    1
     5    31    32    2
     6    31     1    1
     7     1     2    2
     8     2     3    1
     9     2     4    1
    10     4     5    2
    11     4     6   am
    12     6     9    1
    13     9    10   ar
    14    10    11   ar
    15    11    12   ar
    16    12    15    1
    17    15    16   ar
    18    16    17   ar
    19    17    18   ar
    20    18    19   ar
    21    12    13   ar
    22    13    14   ar
    23     6     7    1
    24     7    20    1
    25    20    21   ar
    26    21    22   ar
    27    22    23   ar
    28    23    24   ar
    29    24    25   ar
    30    25    26    1
    31    26    27    1
    32    27    28    1
    33    28    29    1
    34     7     1    1
    35    25    20   ar
    36    14     9   ar
    37    19    15   ar
    38     3     8    1
    39    29    30    1
