@<TRIPOS>MOLECULE
*****
 29 31 0 0 0
SMALL
GASTEIGER

@<TRIPOS>ATOM
      1 C          63.5083   90.3503   13.5784 C.ar    1  UNL1        0.1432
      2 C          64.0650   91.3768   12.6369 C.ar    1  UNL1        0.0384
      3 C          65.4108   91.9845   12.9003 C.ar    1  UNL1        0.0215
      4 C          66.1999   91.5658   14.1053 C.ar    1  UNL1        0.1061
      5 C          65.6433   90.5393   15.0468 C.ar    1  UNL1        0.0259
      6 C          64.2974   89.9315   14.7834 C.ar    1  UNL1        0.0888
      7 C          63.7408   88.9051   15.7249 C.2     1  UNL1        0.2525
      8 O          63.2276   89.3224   17.0712 O.2     1  UNL1       -0.2698
      9 N          63.6972   87.4614   15.3201 N.am    1  UNL1       -0.2678
     10 C          63.1720   86.3283   16.1508 C.3     1  UNL1        0.1205
     11 C          63.3214   85.0639   15.3577 C.ar    1  UNL1       -0.0046
     12 C          62.9749   83.6378   15.6676 C.ar    1  UNL1       -0.0020
     13 C          63.2460   82.5634   14.6566 C.ar    1  UNL1        0.0111
     14 C          63.8637   82.9151   13.3357 C.ar    1  UNL1        0.0574
     15 CL         64.1348   81.8407   12.3247 Cl      1  UNL1       -0.0823
     16 C          64.2102   84.3412   13.0258 C.ar    1  UNL1        0.0085
     17 C          63.9391   85.4156   14.0368 C.ar    1  UNL1       -0.0038
     18 C          64.1713   86.8973   14.0136 C.3     1  UNL1        0.1205
     19 S          67.5458   92.1735   14.3687 S.O2    1  UNL1        0.0105
     20 C          68.8916   92.7813   14.6321 C.3     1  UNL1        0.1816
     21 O          67.8896   92.0427   12.9145 O.2     1  UNL1       -0.1686
     22 O          67.2021   92.3044   15.8228 O.2     1  UNL1       -0.1686
     23 O          62.1625   89.7426   13.3150 O.3     1  UNL1       -0.4702
     24 C          62.4794   88.3859   11.1221 C.3     1  UNL1        0.0566
     25 C          61.7432   89.4291   11.9093 C.3     1  UNL1        0.2599
     26 C          60.5879   90.1589   11.2908 C.3     1  UNL1        0.4340
     27 F          59.4324   90.8886   10.6724 F       1  UNL1       -0.1664
     28 F          61.4361   90.4922   10.0995 F       1  UNL1       -0.1664
     29 F          59.7396   89.8256   12.4822 F       1  UNL1       -0.1664
@<TRIPOS>BOND
     1    25    24    1
     2    25    23    1
     3    23     1    1
     4     1     2   ar
     5     2     3   ar
     6     3     4   ar
     7     4    19    1
     8    19    20    1
     9    19    21    2
    10    19    22    2
    11     4     5   ar
    12     5     6   ar
    13     6     7    1
    14     7     8    2
    15     7     9   am
    16     9    10    1
    17    10    11    1
    18    11    12   ar
    19    12    13   ar
    20    13    14   ar
    21    14    15    1
    22    14    16   ar
    23    16    17   ar
    24    17    18    1
    25    25    26    1
    26    26    27    1
    27    26    28    1
    28    26    29    1
    29     6     1   ar
    30    18     9    1
    31    17    11   ar
@<TRIPOS>MOLECULE
*****
 29 31 0 0 0
SMALL
GASTEIGER

@<TRIPOS>ATOM
      1 C          62.7930   90.6481   11.8089 C.ar    1  UNL1        0.1432
      2 C          62.8555   91.1821   10.4085 C.ar    1  UNL1        0.0384
      3 C          63.9922   92.0686    9.9940 C.ar    1  UNL1        0.0215
      4 C          65.0664   92.4213   10.9797 C.ar    1  UNL1        0.1061
      5 C          65.0039   91.8874   12.3801 C.ar    1  UNL1        0.0259
      6 C          63.8672   91.0007   12.7947 C.ar    1  UNL1        0.0888
      7 C          63.8047   90.4668   14.1950 C.2     1  UNL1        0.2525
      8 O          63.7335   91.4137   15.3562 O.2     1  UNL1       -0.2698
      9 N          63.8135   88.9860   14.4342 N.am    1  UNL1       -0.2678
     10 C          63.7562   88.3085   15.7713 C.3     1  UNL1        0.1205
     11 C          63.7884   86.8265   15.5417 C.ar    1  UNL1       -0.0046
     12 C          63.7573   85.6634   16.4883 C.ar    1  UNL1       -0.0020
     13 C          63.8035   84.2618   15.9560 C.ar    1  UNL1        0.0111
     14 C          63.8807   84.0234   14.4771 C.ar    1  UNL1        0.0574
     15 CL         63.9269   82.6217   13.9448 Cl      1  UNL1       -0.0823
     16 C          63.9117   85.1865   13.5305 C.ar    1  UNL1        0.0085
     17 C          63.8656   86.5881   14.0628 C.ar    1  UNL1       -0.0038
     18 C          63.8811   87.9228   13.3784 C.3     1  UNL1        0.1205
     19 S          66.2032   93.3079   10.5651 S.O2    1  UNL1        0.0105
     20 C          67.3398   94.1944   10.1505 C.3     1  UNL1        0.1816
     21 O          65.3313   94.5138   10.7534 O.2     1  UNL1       -0.1686
     22 O          67.0750   92.1019   10.3768 O.2     1  UNL1       -0.1686
     23 O          61.6563   89.7615   12.2235 O.3     1  UNL1       -0.4702
     24 C          59.3205   90.6174   11.4743 C.3     1  UNL1        0.0566
     25 C          60.4461   89.6342   11.3465 C.3     1  UNL1        0.2599
     26 C          60.3614   88.5237   10.3418 C.3     1  UNL1        0.4340
     27 F          60.2767   87.4130    9.3371 F       1  UNL1       -0.1664
     28 F          59.7976   89.4796    9.3328 F       1  UNL1       -0.1664
     29 F          60.9252   87.5678   11.3509 F       1  UNL1       -0.1664
@<TRIPOS>BOND
     1    25    24    1
     2    25    23    1
     3    23     1    1
     4     1     2   ar
     5     2     3   ar
     6     3     4   ar
     7     4    19    1
     8    19    20    1
     9    19    21    2
    10    19    22    2
    11     4     5   ar
    12     5     6   ar
    13     6     7    1
    14     7     8    2
    15     7     9   am
    16     9    10    1
    17    10    11    1
    18    11    12   ar
    19    12    13   ar
    20    13    14   ar
    21    14    15    1
    22    14    16   ar
    23    16    17   ar
    24    17    18    1
    25    25    26    1
    26    26    27    1
    27    26    28    1
    28    26    29    1
    29     6     1   ar
    30    18     9    1
    31    17    11   ar
@<TRIPOS>MOLECULE
*****
 29 31 0 0 0
SMALL
GASTEIGER

@<TRIPOS>ATOM
      1 C          63.5733   89.9311   14.1429 C.ar    1  UNL1        0.1432
      2 C          64.9180   90.4545   14.5529 C.ar    1  UNL1        0.0384
      3 C          65.6894   91.3475   13.6270 C.ar    1  UNL1        0.0215
      4 C          65.1163   91.7172   12.2910 C.ar    1  UNL1        0.1061
      5 C          63.7717   91.1939   11.8810 C.ar    1  UNL1        0.0259
      6 C          63.0002   90.3009   12.8069 C.ar    1  UNL1        0.0888
      7 C          61.6556   89.7776   12.3968 C.2     1  UNL1        0.2525
      8 O          60.4190   90.2555   13.0984 O.2     1  UNL1       -0.2698
      9 N          61.5476   88.7764   11.2851 N.am    1  UNL1       -0.2678
     10 C          60.2785   88.1667   10.7678 C.3     1  UNL1        0.1205
     11 C          60.6363   87.2225    9.6585 C.ar    1  UNL1       -0.0046
     12 C          59.7976   86.3424    8.7799 C.ar    1  UNL1       -0.0020
     13 C          60.4493   85.4884    7.7330 C.ar    1  UNL1        0.0111
     14 C          61.9396   85.5146    7.5647 C.ar    1  UNL1        0.0574
     15 CL         62.5912   84.6605    6.5177 Cl      1  UNL1       -0.0823
     16 C          62.7782   86.3947    8.4433 C.ar    1  UNL1        0.0085
     17 C          62.1266   87.2487    9.4902 C.ar    1  UNL1       -0.0038
     18 C          62.6898   88.2090   10.4955 C.3     1  UNL1        0.1205
     19 S          65.8879   92.6103   11.3651 S.O2    1  UNL1        0.0105
     20 C          66.6594   93.5033   10.4393 C.3     1  UNL1        0.1816
     21 O          64.7392   92.6025   10.4005 O.2     1  UNL1       -0.1686
     22 O          67.0365   92.6180   12.3298 O.2     1  UNL1       -0.1686
     23 O          62.8019   89.0381   15.0688 O.3     1  UNL1       -0.4702
     24 C          64.4480   87.0351   14.9011 C.3     1  UNL1        0.0566
     25 C          63.4701   87.8500   15.6946 C.3     1  UNL1        0.2599
     26 C          63.1605   87.4767   17.1141 C.3     1  UNL1        0.4340
     27 F          62.8509   87.1035   18.5336 F       1  UNL1       -0.1664
     28 F          63.0734   86.0333   16.7155 F       1  UNL1       -0.1664
     29 F          63.2477   88.9201   17.5126 F       1  UNL1       -0.1664
@<TRIPOS>BOND
     1    25    24    1
     2    25    23    1
     3    23     1    1
     4     1     2   ar
     5     2     3   ar
     6     3     4   ar
     7     4    19    1
     8    19    20    1
     9    19    21    2
    10    19    22    2
    11     4     5   ar
    12     5     6   ar
    13     6     7    1
    14     7     8    2
    15     7     9   am
    16     9    10    1
    17    10    11    1
    18    11    12   ar
    19    12    13   ar
    20    13    14   ar
    21    14    15    1
    22    14    16   ar
    23    16    17   ar
    24    17    18    1
    25    25    26    1
    26    26    27    1
    27    26    28    1
    28    26    29    1
    29     6     1   ar
    30    18     9    1
    31    17    11   ar
@<TRIPOS>MOLECULE
*****
 29 31 0 0 0
SMALL
GASTEIGER

@<TRIPOS>ATOM
      1 C          64.2508   90.8565   12.5142 C.ar    1  UNL1        0.1432
      2 C          63.8370   91.6960   11.3420 C.ar    1  UNL1        0.0384
      3 C          62.7787   91.2010   10.4013 C.ar    1  UNL1        0.0215
      4 C          62.1341   89.8665   10.6329 C.ar    1  UNL1        0.1061
      5 C          62.5478   89.0270   11.8050 C.ar    1  UNL1        0.0259
      6 C          63.6061   89.5220   12.7458 C.ar    1  UNL1        0.0888
      7 C          64.0198   88.6825   13.9179 C.2     1  UNL1        0.2525
      8 O          64.5676   89.3357   15.1521 O.2     1  UNL1       -0.2698
      9 N          63.8858   87.1898   13.8559 N.am    1  UNL1       -0.2678
     10 C          64.2560   86.2253   14.9434 C.3     1  UNL1        0.1205
     11 C          63.9570   84.8389   14.4552 C.ar    1  UNL1       -0.0046
     12 C          64.1184   83.4924   15.0961 C.ar    1  UNL1       -0.0020
     13 C          63.7247   82.2535   14.3478 C.ar    1  UNL1        0.0111
     14 C          63.1696   82.3611   12.9584 C.ar    1  UNL1        0.0574
     15 CL         62.7759   81.1221   12.2101 Cl      1  UNL1       -0.0823
     16 C          63.0082   83.7076   12.3175 C.ar    1  UNL1        0.0085
     17 C          63.4019   84.9465   13.0658 C.ar    1  UNL1       -0.0038
     18 C          63.3578   86.3994   12.6955 C.3     1  UNL1        0.1205
     19 S          61.0757   89.3716    9.6921 S.O2    1  UNL1        0.0105
     20 C          60.0174   88.8766    8.7514 C.3     1  UNL1        0.1816
     21 O          60.2543   90.5950    9.9724 O.2     1  UNL1       -0.1686
     22 O          61.8970   88.1482    9.4118 O.2     1  UNL1       -0.1686
     23 O          65.3091   91.3514   13.4549 O.3     1  UNL1       -0.4702
     24 C          66.0481   93.7457   12.7683 C.3     1  UNL1        0.0566
     25 C          66.3681   92.2934   12.9637 C.3     1  UNL1        0.2599
     26 C          67.7472   91.7830   12.6680 C.3     1  UNL1        0.4340
     27 F          69.1264   91.2725   12.3722 F       1  UNL1       -0.1664
     28 F          67.5534   92.1011   11.2150 F       1  UNL1       -0.1664
     29 F          67.9411   91.4648   14.1209 F       1  UNL1       -0.1664
@<TRIPOS>BOND
     1    25    24    1
     2    25    23    1
     3    23     1    1
     4     1     2   ar
     5     2     3   ar
     6     3     4   ar
     7     4    19    1
     8    19    20    1
     9    19    21    2
    10    19    22    2
    11     4     5   ar
    12     5     6   ar
    13     6     7    1
    14     7     8    2
    15     7     9   am
    16     9    10    1
    17    10    11    1
    18    11    12   ar
    19    12    13   ar
    20    13    14   ar
    21    14    15    1
    22    14    16   ar
    23    16    17   ar
    24    17    18    1
    25    25    26    1
    26    26    27    1
    27    26    28    1
    28    26    29    1
    29     6     1   ar
    30    18     9    1
    31    17    11   ar
@<TRIPOS>MOLECULE
*****
 29 31 0 0 0
SMALL
GASTEIGER

@<TRIPOS>ATOM
      1 C          64.1936   89.9469   13.1354 C.ar    1  UNL1        0.1432
      2 C          63.9160   91.0385   12.1447 C.ar    1  UNL1        0.0384
      3 C          62.9069   90.8243   11.0557 C.ar    1  UNL1        0.0215
      4 C          62.1753   89.5185   10.9574 C.ar    1  UNL1        0.1061
      5 C          62.4528   88.4269   11.9480 C.ar    1  UNL1        0.0259
      6 C          63.4620   88.6411   13.0370 C.ar    1  UNL1        0.0888
      7 C          63.7395   87.5495   14.0277 C.2     1  UNL1        0.2525
      8 O          64.1052   87.8944   15.4409 O.2     1  UNL1       -0.2698
      9 N          63.6512   86.1130   13.6051 N.am    1  UNL1       -0.2678
     10 C          63.8998   84.9198   14.4795 C.3     1  UNL1        0.1205
     11 C          63.7011   83.6868   13.6487 C.ar    1  UNL1       -0.0046
     12 C          63.8103   82.2272   13.9767 C.ar    1  UNL1       -0.0020
     13 C          63.5482   81.1987   12.9168 C.ar    1  UNL1        0.0111
     14 C          63.1768   81.6298   11.5289 C.ar    1  UNL1        0.0574
     15 CL         62.9147   80.6012   10.4690 Cl      1  UNL1       -0.0823
     16 C          63.0675   83.0894   11.2009 C.ar    1  UNL1        0.0085
     17 C          63.3297   84.1179   12.2608 C.ar    1  UNL1       -0.0038
     18 C          63.2989   85.6173   12.2339 C.3     1  UNL1        0.1205
     19 S          61.1662   89.3044    9.8684 S.O2    1  UNL1        0.0105
     20 C          60.1571   89.0903    8.7795 C.3     1  UNL1        0.1816
     21 O          61.8923   88.0639    9.4395 O.2     1  UNL1       -0.1686
     22 O          60.4401   90.5448   10.2974 O.2     1  UNL1       -0.1686
     23 O          65.2026   90.1611   14.2243 O.3     1  UNL1       -0.4702
     24 C          63.7819   91.2352   16.1158 C.3     1  UNL1        0.0566
     25 C          64.9958   91.2501   15.2349 C.3     1  UNL1        0.2599
     26 C          66.0029   92.3541   15.3645 C.3     1  UNL1        0.4340
     27 F          67.0101   93.4582   15.4941 F       1  UNL1       -0.1664
     28 F          65.4776   92.6727   16.7329 F       1  UNL1       -0.1664
     29 F          66.5283   92.0356   13.9961 F       1  UNL1       -0.1664
@<TRIPOS>BOND
     1    25    24    1
     2    25    23    1
     3    23     1    1
     4     1     2   ar
     5     2     3   ar
     6     3     4   ar
     7     4    19    1
     8    19    20    1
     9    19    21    2
    10    19    22    2
    11     4     5   ar
    12     5     6   ar
    13     6     7    1
    14     7     8    2
    15     7     9   am
    16     9    10    1
    17    10    11    1
    18    11    12   ar
    19    12    13   ar
    20    13    14   ar
    21    14    15    1
    22    14    16   ar
    23    16    17   ar
    24    17    18    1
    25    25    26    1
    26    26    27    1
    27    26    28    1
    28    26    29    1
    29     6     1   ar
    30    18     9    1
    31    17    11   ar
@<TRIPOS>MOLECULE
*****
 29 31 0 0 0
SMALL
GASTEIGER

@<TRIPOS>ATOM
      1 C          62.7882   86.5869   12.2873 C.ar    1  UNL1        0.1432
      2 C          62.0433   85.7491   11.2906 C.ar    1  UNL1        0.0384
      3 C          61.2781   86.4069   10.1808 C.ar    1  UNL1        0.0215
      4 C          61.2577   87.9025   10.0676 C.ar    1  UNL1        0.1061
      5 C          62.0025   88.7403   11.0643 C.ar    1  UNL1        0.0259
      6 C          62.7678   88.0825   12.1741 C.ar    1  UNL1        0.0888
      7 C          63.5126   88.9203   13.1708 C.2     1  UNL1        0.2525
      8 O          63.6441   88.4564   14.5912 O.2     1  UNL1       -0.2698
      9 N          64.1259   90.2219   12.7470 N.am    1  UNL1       -0.2678
     10 C          64.8958   91.1616   13.6269 C.3     1  UNL1        0.1205
     11 C          65.3228   92.3329   12.7927 C.ar    1  UNL1       -0.0046
     12 C          66.1069   93.5680   13.1235 C.ar    1  UNL1       -0.0020
     13 C          66.3851   94.5873   12.0588 C.ar    1  UNL1        0.0111
     14 C          65.8792   94.3714   10.6633 C.ar    1  UNL1        0.0574
     15 CL         66.1574   95.3908    9.5986 Cl      1  UNL1       -0.0823
     16 C          65.0950   93.1363   10.3325 C.ar    1  UNL1        0.0085
     17 C          64.8168   92.1170   11.3972 C.ar    1  UNL1       -0.0038
     18 C          64.0772   90.8123   11.3690 C.3     1  UNL1        0.1205
     19 S          60.4924   88.5603    8.9578 S.O2    1  UNL1        0.0105
     20 C          59.7272   89.2181    7.8480 C.3     1  UNL1        0.1816
     21 O          60.4806   89.8471    9.7285 O.2     1  UNL1       -0.1686
     22 O          60.5042   87.2736    8.1871 O.2     1  UNL1       -0.1686
     23 O          63.5534   85.9291   13.3971 O.3     1  UNL1       -0.4702
     24 C          62.3034   84.1380   14.8040 C.3     1  UNL1        0.0566
     25 C          63.2957   84.4908   13.7359 C.3     1  UNL1        0.2599
     26 C          64.0303   83.4052   13.0067 C.3     1  UNL1        0.4340
     27 F          64.7649   82.3195   12.2774 F       1  UNL1       -0.1664
     28 F          65.3380   84.0088   13.4255 F       1  UNL1       -0.1664
     29 F          62.7226   82.8016   12.5879 F       1  UNL1       -0.1664
@<TRIPOS>BOND
     1    25    24    1
     2    25    23    1
     3    23     1    1
     4     1     2   ar
     5     2     3   ar
     6     3     4   ar
     7     4    19    1
     8    19    20    1
     9    19    21    2
    10    19    22    2
    11     4     5   ar
    12     5     6   ar
    13     6     7    1
    14     7     8    2
    15     7     9   am
    16     9    10    1
    17    10    11    1
    18    11    12   ar
    19    12    13   ar
    20    13    14   ar
    21    14    15    1
    22    14    16   ar
    23    16    17   ar
    24    17    18    1
    25    25    26    1
    26    26    27    1
    27    26    28    1
    28    26    29    1
    29     6     1   ar
    30    18     9    1
    31    17    11   ar
@<TRIPOS>MOLECULE
*****
 29 31 0 0 0
SMALL
GASTEIGER

@<TRIPOS>ATOM
      1 C          62.3318   84.0658   14.4461 C.ar    1  UNL1        0.1432
      2 C          62.0520   82.6168   14.7150 C.ar    1  UNL1        0.0384
      3 C          62.2806   81.5966   13.6395 C.ar    1  UNL1        0.0215
      4 C          62.7891   82.0253   12.2950 C.ar    1  UNL1        0.1061
      5 C          63.0690   83.4742   12.0260 C.ar    1  UNL1        0.0259
      6 C          62.8403   84.4945   13.1016 C.ar    1  UNL1        0.0888
      7 C          63.1202   85.9434   12.8327 C.2     1  UNL1        0.2525
      8 O          64.1455   86.6732   13.6487 O.2     1  UNL1       -0.2698
      9 N          62.3747   86.6624   11.7477 N.am    1  UNL1       -0.2678
     10 C          62.5462   88.1027   11.3654 C.3     1  UNL1        0.1205
     11 C          61.6043   88.3979   10.2359 C.ar    1  UNL1       -0.0046
     12 C          61.3355   89.6495    9.4542 C.ar    1  UNL1       -0.0020
     13 C          60.3132   89.6433    8.3567 C.ar    1  UNL1        0.0111
     14 C          59.5596   88.3853    8.0408 C.ar    1  UNL1        0.0574
     15 CL         58.5372   88.3791    6.9431 Cl      1  UNL1       -0.0823
     16 C          59.8284   87.1337    8.8225 C.ar    1  UNL1        0.0085
     17 C          60.8508   87.1400    9.9200 C.ar    1  UNL1       -0.0038
     18 C          61.3269   86.0674   10.8543 C.3     1  UNL1        0.1205
     19 S          63.0178   81.0050   11.2194 S.O2    1  UNL1        0.0105
     20 C          63.2464   79.9848   10.1438 C.3     1  UNL1        0.1816
     21 O          62.5748   79.9194   12.1549 O.2     1  UNL1       -0.1686
     22 O          63.4608   82.0906   10.2839 O.2     1  UNL1       -0.1686
     23 O          62.1032   85.0860   15.5217 O.3     1  UNL1       -0.4702
     24 C          64.5969   84.9286   16.2332 C.3     1  UNL1        0.0566
     25 C          63.2612   85.6054   16.3212 C.3     1  UNL1        0.2599
     26 C          63.0836   86.8016   17.2085 C.3     1  UNL1        0.4340
     27 F          62.9058   87.9978   18.0960 F       1  UNL1       -0.1664
     28 F          63.7227   87.6700   16.1659 F       1  UNL1       -0.1664
     29 F          62.4444   85.9331   18.2512 F       1  UNL1       -0.1664
@<TRIPOS>BOND
     1    25    24    1
     2    25    23    1
     3    23     1    1
     4     1     2   ar
     5     2     3   ar
     6     3     4   ar
     7     4    19    1
     8    19    20    1
     9    19    21    2
    10    19    22    2
    11     4     5   ar
    12     5     6   ar
    13     6     7    1
    14     7     8    2
    15     7     9   am
    16     9    10    1
    17    10    11    1
    18    11    12   ar
    19    12    13   ar
    20    13    14   ar
    21    14    15    1
    22    14    16   ar
    23    16    17   ar
    24    17    18    1
    25    25    26    1
    26    26    27    1
    27    26    28    1
    28    26    29    1
    29     6     1   ar
    30    18     9    1
    31    17    11   ar
@<TRIPOS>MOLECULE
*****
 29 31 0 0 0
SMALL
GASTEIGER

@<TRIPOS>ATOM
      1 C          62.6388   85.6447   11.6146 C.ar    1  UNL1        0.1432
      2 C          61.9122   85.2089   10.3767 C.ar    1  UNL1        0.0384
      3 C          61.2037   86.2219    9.5271 C.ar    1  UNL1        0.0215
      4 C          61.2218   87.6707    9.9153 C.ar    1  UNL1        0.1061
      5 C          61.9483   88.1065   11.1531 C.ar    1  UNL1        0.0259
      6 C          62.6569   87.0935   12.0028 C.ar    1  UNL1        0.0888
      7 C          63.3834   87.5293   13.2405 C.2     1  UNL1        0.2525
      8 O          63.4734   86.6081   14.4209 O.2     1  UNL1       -0.2698
      9 N          64.0200   88.8863   13.2980 N.am    1  UNL1       -0.2678
     10 C          64.7755   89.4572   14.4613 C.3     1  UNL1        0.1205
     11 C          65.2352   90.8345   14.0845 C.ar    1  UNL1       -0.0046
     12 C          66.0222   91.8695   14.8323 C.ar    1  UNL1       -0.0020
     13 C          66.3377   93.1848   14.1840 C.ar    1  UNL1        0.0111
     14 C          65.8663   93.4651   12.7879 C.ar    1  UNL1        0.0574
     15 CL         66.1819   94.7805   12.1396 Cl      1  UNL1       -0.0823
     16 C          65.0793   92.4300   12.0401 C.ar    1  UNL1        0.0085
     17 C          64.7638   91.1147   12.6884 C.ar    1  UNL1       -0.0038
     18 C          64.0127   89.9107   12.2023 C.3     1  UNL1        0.1205
     19 S          60.5133   88.6837    9.0656 S.O2    1  UNL1        0.0105
     20 C          59.8048   89.6967    8.2160 C.3     1  UNL1        0.1816
     21 O          59.9224   87.5788    8.2410 O.2     1  UNL1       -0.1686
     22 O          61.1042   89.7886    9.8902 O.2     1  UNL1       -0.1686
     23 O          63.3473   84.6317   12.4642 O.3     1  UNL1       -0.4702
     24 C          64.3109   82.7499   10.9542 C.3     1  UNL1        0.0566
     25 C          63.3803   83.1921   12.0443 C.3     1  UNL1        0.2599
     26 C          62.4827   82.1945   12.7145 C.3     1  UNL1        0.4340
     27 F          61.5851   81.1969   13.3847 F       1  UNL1       -0.1664
     28 F          62.2076   83.1794   13.8119 F       1  UNL1       -0.1664
     29 F          62.7579   81.2097   11.6172 F       1  UNL1       -0.1664
@<TRIPOS>BOND
     1    25    24    1
     2    25    23    1
     3    23     1    1
     4     1     2   ar
     5     2     3   ar
     6     3     4   ar
     7     4    19    1
     8    19    20    1
     9    19    21    2
    10    19    22    2
    11     4     5   ar
    12     5     6   ar
    13     6     7    1
    14     7     8    2
    15     7     9   am
    16     9    10    1
    17    10    11    1
    18    11    12   ar
    19    12    13   ar
    20    13    14   ar
    21    14    15    1
    22    14    16   ar
    23    16    17   ar
    24    17    18    1
    25    25    26    1
    26    26    27    1
    27    26    28    1
    28    26    29    1
    29     6     1   ar
    30    18     9    1
    31    17    11   ar
@<TRIPOS>MOLECULE
*****
 29 31 0 0 0
SMALL
GASTEIGER

@<TRIPOS>ATOM
      1 C          63.7429   90.9004   13.4256 C.ar    1  UNL1        0.1432
      2 C          64.7345   91.8304   14.0597 C.ar    1  UNL1        0.0384
      3 C          65.6183   92.6841   13.1996 C.ar    1  UNL1        0.0215
      4 C          65.5107   92.6081   11.7054 C.ar    1  UNL1        0.1061
      5 C          64.5191   91.6782   11.0713 C.ar    1  UNL1        0.0259
      6 C          63.6352   90.8243   11.9314 C.ar    1  UNL1        0.0888
      7 C          62.6436   89.8945   11.2973 C.2     1  UNL1        0.2525
      8 O          61.5975   90.4342   10.3677 O.2     1  UNL1       -0.2698
      9 N          62.6983   88.4249   11.5927 N.am    1  UNL1       -0.2678
     10 C          61.7786   87.3788   11.0360 C.3     1  UNL1        0.1205
     11 C          62.1941   86.0507   11.5960 C.ar    1  UNL1       -0.0046
     12 C          61.6532   84.6654   11.4004 C.ar    1  UNL1       -0.0020
     13 C          62.2888   83.5054   12.1077 C.ar    1  UNL1        0.0111
     14 C          63.4653   83.7306   13.0105 C.ar    1  UNL1        0.0574
     15 CL         64.1009   82.5705   13.7178 Cl      1  UNL1       -0.0823
     16 C          64.0062   85.1159   13.2060 C.ar    1  UNL1        0.0085
     17 C          63.3707   86.2760   12.4988 C.ar    1  UNL1       -0.0038
     18 C          63.6822   87.7433   12.4968 C.3     1  UNL1        0.1205
     19 S          66.3946   93.4619   10.8453 S.O2    1  UNL1        0.0105
     20 C          67.2785   94.3157    9.9852 C.3     1  UNL1        0.1816
     21 O          65.2486   94.3970   10.5957 O.2     1  UNL1       -0.1686
     22 O          67.5406   92.5268   11.0949 O.2     1  UNL1       -0.1686
     23 O          62.8590   90.0467   14.2857 O.3     1  UNL1       -0.4702
     24 C          63.5057   90.7159   16.7113 C.3     1  UNL1        0.0566
     25 C          63.3023   89.6601   15.6655 C.3     1  UNL1        0.2599
     26 C          63.5423   88.2176   15.9996 C.3     1  UNL1        0.4340
     27 F          63.7823   86.7751   16.3337 F       1  UNL1       -0.1664
     28 F          64.6795   88.1804   15.0221 F       1  UNL1       -0.1664
     29 F          62.4052   88.2548   16.9771 F       1  UNL1       -0.1664
@<TRIPOS>BOND
     1    25    24    1
     2    25    23    1
     3    23     1    1
     4     1     2   ar
     5     2     3   ar
     6     3     4   ar
     7     4    19    1
     8    19    20    1
     9    19    21    2
    10    19    22    2
    11     4     5   ar
    12     5     6   ar
    13     6     7    1
    14     7     8    2
    15     7     9   am
    16     9    10    1
    17    10    11    1
    18    11    12   ar
    19    12    13   ar
    20    13    14   ar
    21    14    15    1
    22    14    16   ar
    23    16    17   ar
    24    17    18    1
    25    25    26    1
    26    26    27    1
    27    26    28    1
    28    26    29    1
    29     6     1   ar
    30    18     9    1
    31    17    11   ar
