@<TRIPOS>MOLECULE
*****
 37 42 0 0 0
SMALL
GASTEIGER

@<TRIPOS>ATOM
      1 C          65.1153   91.6023   12.5445 C.ar    1  UNL1        0.0380
      2 C          63.8676   90.8934   12.1078 C.ar    1  UNL1        0.0415
      3 C          63.1012   90.0529   13.0857 C.ar    1  UNL1        0.1578
      4 C          63.5825   89.9214   14.5003 C.ar    1  UNL1        0.1356
      5 N          64.8302   90.6303   14.9370 N.ar    1  UNL1       -0.2405
      6 C          65.5966   91.4708   13.9591 C.ar    1  UNL1        0.0861
      7 C          64.6727   96.8556    9.8991 C.3     1  UNL1        0.0540
      8 C          65.8574   95.9852    9.6012 C.2     1  UNL1        0.0822
      9 N          66.9840   96.3184    8.6685 N.2     1  UNL1       -0.1526
     10 N          67.9464   95.1678    8.6745 N.2     1  UNL1       -0.1506
     11 C          67.4146   94.1236    9.6109 C.2     1  UNL1        0.1062
     12 C          67.9393   92.7780   10.0160 C.3     1  UNL1        0.1726
     13 N          67.1728   91.9376   10.9939 N.2     1  UNL1       -0.2638
     14 C          65.8818   92.4428   11.5666 C.2     1  UNL1        0.0781
     15 C          65.3571   93.7884   11.1615 C.2     1  UNL1        0.0213
     16 C          66.1236   94.6288   10.1836 C.2     1  UNL1        0.0340
     17 C          66.8444   92.1797   14.3958 C.ar    1  UNL1        0.0584
     18 C          66.9097   93.3672   15.3099 C.ar    1  UNL1        0.0453
     19 C          68.3515   93.7470   15.4740 C.ar    1  UNL1        0.1798
     20 O          69.1773   92.7942   14.6613 O.2     1  UNL1       -0.4473
     21 C          68.2458   91.8256   13.9950 C.ar    1  UNL1        0.1812
     22 O          61.8535   89.3441   12.6490 O.3     1  UNL1       -0.4724
     23 C          61.0661   89.8618   11.4820 C.3     1  UNL1        0.2211
     24 C          60.7013   88.9410   10.3555 C.3     1  UNL1        0.0995
     25 N          60.5076   89.4881    8.9723 N.3     1  UNL1       -0.3190
     26 H          60.2654   88.7279    8.3369 H       1  UNL1        0.1189
     27 H          61.3706   89.9318    8.6582 H       1  UNL1        0.1189
     28 C          60.5303   87.4731   10.6122 C.3     1  UNL1        0.0472
     29 C          61.4504   86.4851    9.9583 C.2     1  UNL1       -0.0005
     30 C          61.6910   86.3462    8.4843 C.2     1  UNL1        0.0942
     31 N          62.6807   85.2379    8.2786 N.2     1  UNL1       -0.2482
     32 C          63.0517   84.6919    9.6256 C.2     1  UNL1        0.0631
     33 C          63.9837   83.5925   10.0409 C.3     1  UNL1        0.0717
     34 C          64.1553   83.2638   11.4944 C.2     1  UNL1       -0.0198
     35 C          63.3949   84.0346   12.5325 C.2     1  UNL1       -0.0042
     36 C          62.4630   85.1341   12.1171 C.2     1  UNL1        0.0006
     37 C          62.2914   85.4627   10.6637 C.2     1  UNL1        0.0114
@<TRIPOS>BOND
     1     7     8    1
     2     8     9    2
     3     9    10    1
     4    10    11    2
     5    11    12    1
     6    12    13    1
     7    13    14    2
     8    14     1    1
     9     1     2   ar
    10     2     3   ar
    11     3    22    1
    12    22    23    1
    13    23    24    1
    14    24    25    1
    15    24    28    1
    16    28    29    1
    17    29    30    2
    18    30    31    1
    19    31    32    2
    20    32    33    1
    21    33    34    1
    22    34    35    2
    23    35    36    1
    24    36    37    2
    25     3     4   ar
    26     4     5   ar
    27     5     6   ar
    28     6    17    1
    29    17    18   ar
    30    18    19   ar
    31    19    20   ar
    32    20    21   ar
    33    14    15    1
    34    15    16    2
    35    16     8    1
    36    16    11    1
    37     6     1   ar
    38    21    17   ar
    39    37    29    1
    40    37    32    1
    41    25    26    1
    42    25    27    1
@<TRIPOS>MOLECULE
*****
 37 42 0 0 0
SMALL
GASTEIGER

@<TRIPOS>ATOM
      1 C          65.1293   91.8899   12.9839 C.ar    1  UNL1        0.0380
      2 C          63.8382   91.2319   12.5964 C.ar    1  UNL1        0.0415
      3 C          63.2312   90.1886   13.4870 C.ar    1  UNL1        0.1578
      4 C          63.9154   89.8033   14.7651 C.ar    1  UNL1        0.1356
      5 N          65.2065   90.4613   15.1526 N.ar    1  UNL1       -0.2405
      6 C          65.8134   91.5046   14.2620 C.ar    1  UNL1        0.0861
      7 C          68.6835   92.1988    8.2867 C.3     1  UNL1        0.0540
      8 C          68.1455   93.4669    8.8804 C.2     1  UNL1        0.0822
      9 N          68.4239   94.8572    8.3906 N.2     1  UNL1       -0.1526
     10 N          67.6851   95.8169    9.2756 N.2     1  UNL1       -0.1506
     11 C          66.9502   95.0198   10.3123 C.2     1  UNL1        0.1062
     12 C          66.0587   95.4289   11.4471 C.3     1  UNL1        0.1726
     13 N          65.4517   94.3856   12.3376 N.2     1  UNL1       -0.2638
     14 C          65.7363   92.9332   12.0933 C.2     1  UNL1        0.0781
     15 C          66.6278   92.5241   10.9585 C.2     1  UNL1        0.0213
     16 C          67.2348   93.5675   10.0680 C.2     1  UNL1        0.0340
     17 C          67.1046   92.1626   14.6495 C.ar    1  UNL1        0.0584
     18 C          67.2842   93.1793   15.7375 C.ar    1  UNL1        0.0453
     19 C          68.7334   93.5644   15.7774 C.ar    1  UNL1        0.1798
     20 O          69.4494   92.7857   14.7139 O.2     1  UNL1       -0.4473
     21 C          68.4427   91.9193   14.0168 C.ar    1  UNL1        0.1812
     22 O          61.9402   89.5307   13.0995 O.3     1  UNL1       -0.4724
     23 C          61.1534   90.0514   11.9334 C.3     1  UNL1        0.2211
     24 C          60.2991   89.1179   11.1281 C.3     1  UNL1        0.0995
     25 N          59.5870   87.9827   11.8024 N.3     1  UNL1       -0.3190
     26 H          59.0567   87.4545   11.1095 H       1  UNL1        0.1189
     27 H          58.9504   88.3522   12.5085 H       1  UNL1        0.1189
     28 C          60.1567   89.3193    9.6486 C.3     1  UNL1        0.0472
     29 C          60.0188   88.1337    8.7400 C.2     1  UNL1       -0.0005
     30 C          58.8232   87.8036    7.8965 C.2     1  UNL1        0.0942
     31 N          59.1178   86.5360    7.1507 N.2     1  UNL1       -0.2482
     32 C          60.4955   86.0825    7.5334 C.2     1  UNL1        0.0631
     33 C          61.3149   84.8981    7.1143 C.3     1  UNL1        0.0717
     34 C          62.6912   84.7011    7.6774 C.2     1  UNL1       -0.0198
     35 C          63.2480   85.6885    8.6597 C.2     1  UNL1       -0.0042
     36 C          62.4286   86.8730    9.0788 C.2     1  UNL1        0.0006
     37 C          61.0524   87.0700    8.5156 C.2     1  UNL1        0.0114
@<TRIPOS>BOND
     1     7     8    1
     2     8     9    2
     3     9    10    1
     4    10    11    2
     5    11    12    1
     6    12    13    1
     7    13    14    2
     8    14     1    1
     9     1     2   ar
    10     2     3   ar
    11     3    22    1
    12    22    23    1
    13    23    24    1
    14    24    25    1
    15    24    28    1
    16    28    29    1
    17    29    30    2
    18    30    31    1
    19    31    32    2
    20    32    33    1
    21    33    34    1
    22    34    35    2
    23    35    36    1
    24    36    37    2
    25     3     4   ar
    26     4     5   ar
    27     5     6   ar
    28     6    17    1
    29    17    18   ar
    30    18    19   ar
    31    19    20   ar
    32    20    21   ar
    33    14    15    1
    34    15    16    2
    35    16     8    1
    36    16    11    1
    37     6     1   ar
    38    21    17   ar
    39    37    29    1
    40    37    32    1
    41    25    26    1
    42    25    27    1
@<TRIPOS>MOLECULE
*****
 37 42 0 0 0
SMALL
GASTEIGER

@<TRIPOS>ATOM
      1 C          64.1294   90.7915   13.1872 C.ar    1  UNL1        0.0380
      2 C          63.3004   90.6129   11.9500 C.ar    1  UNL1        0.0415
      3 C          63.5903   91.4332   10.7280 C.ar    1  UNL1        0.1578
      4 C          64.7092   92.4321   10.7433 C.ar    1  UNL1        0.1356
      5 N          65.5383   92.6107   11.9806 N.ar    1  UNL1       -0.2405
      6 C          65.2484   91.7904   13.2025 C.ar    1  UNL1        0.0861
      7 C          64.3901   85.1598   14.9213 C.3     1  UNL1        0.0540
      8 C          63.9068   86.2001   15.8878 C.2     1  UNL1        0.0822
      9 N          63.4660   85.9543   17.3004 N.2     1  UNL1       -0.1526
     10 N          63.0662   87.2712   17.8970 N.2     1  UNL1       -0.1506
     11 C          63.2598   88.3309   16.8531 C.2     1  UNL1        0.1062
     12 C          63.0302   89.8130   16.8729 C.3     1  UNL1        0.1726
     13 N          63.3201   90.6332   15.6510 N.2     1  UNL1       -0.2638
     14 C          63.8396   89.9713   14.4092 C.2     1  UNL1        0.0781
     15 C          64.0692   88.4891   14.3894 C.2     1  UNL1        0.0213
     16 C          63.7793   87.6689   15.6114 C.2     1  UNL1        0.0340
     17 C          66.0774   91.9690   14.4398 C.ar    1  UNL1        0.0584
     18 C          67.4734   91.4607   14.6468 C.ar    1  UNL1        0.0453
     19 C          67.9147   91.8648   16.0222 C.ar    1  UNL1        0.1798
     20 O          66.7915   92.6229   16.6654 O.2     1  UNL1       -0.4473
     21 C          65.6560   92.6873   15.6874 C.ar    1  UNL1        0.1812
     22 O          62.7612   91.2546    9.4908 O.3     1  UNL1       -0.4724
     23 C          61.9474   90.0080    9.3068 C.3     1  UNL1        0.2211
     24 C          60.6896   89.8097   10.0995 C.3     1  UNL1        0.0995
     25 N          59.9817   90.9923   10.6914 N.3     1  UNL1       -0.3190
     26 H          59.1521   90.6758   11.1934 H       1  UNL1        0.1189
     27 H          59.7050   91.6311    9.9459 H       1  UNL1        0.1189
     28 C          60.1396   88.4287   10.3004 C.3     1  UNL1        0.0472
     29 C          60.0046   87.4978    9.1319 C.2     1  UNL1       -0.0005
     30 C          58.7893   87.3389    8.2671 C.2     1  UNL1        0.0942
     31 N          59.0948   86.3054    7.2238 N.2     1  UNL1       -0.2482
     32 C          60.4989   85.8255    7.4438 C.2     1  UNL1        0.0631
     33 C          61.3380   84.8128    6.7228 C.3     1  UNL1        0.0717
     34 C          62.7395   84.5369    7.1809 C.2     1  UNL1       -0.0198
     35 C          63.3017   85.2739    8.3602 C.2     1  UNL1       -0.0042
     36 C          62.4625   86.2867    9.0813 C.2     1  UNL1        0.0006
     37 C          61.0611   86.5625    8.6231 C.2     1  UNL1        0.0114
@<TRIPOS>BOND
     1     7     8    1
     2     8     9    2
     3     9    10    1
     4    10    11    2
     5    11    12    1
     6    12    13    1
     7    13    14    2
     8    14     1    1
     9     1     2   ar
    10     2     3   ar
    11     3    22    1
    12    22    23    1
    13    23    24    1
    14    24    25    1
    15    24    28    1
    16    28    29    1
    17    29    30    2
    18    30    31    1
    19    31    32    2
    20    32    33    1
    21    33    34    1
    22    34    35    2
    23    35    36    1
    24    36    37    2
    25     3     4   ar
    26     4     5   ar
    27     5     6   ar
    28     6    17    1
    29    17    18   ar
    30    18    19   ar
    31    19    20   ar
    32    20    21   ar
    33    14    15    1
    34    15    16    2
    35    16     8    1
    36    16    11    1
    37     6     1   ar
    38    21    17   ar
    39    37    29    1
    40    37    32    1
    41    25    26    1
    42    25    27    1
@<TRIPOS>MOLECULE
*****
 37 42 0 0 0
SMALL
GASTEIGER

@<TRIPOS>ATOM
      1 C          63.2943   85.0980   13.8273 C.ar    1  UNL1        0.0380
      2 C          63.5439   86.4615   14.4004 C.ar    1  UNL1        0.0415
      3 C          63.5878   86.6535   15.8875 C.ar    1  UNL1        0.1578
      4 C          63.3821   85.4819   16.8013 C.ar    1  UNL1        0.1356
      5 N          63.1326   84.1183   16.2281 N.ar    1  UNL1       -0.2405
      6 C          63.0887   83.9264   14.7411 C.ar    1  UNL1        0.0861
      7 C          60.2520   87.0829    9.1802 C.3     1  UNL1        0.0540
      8 C          61.3439   86.0776    8.9631 C.2     1  UNL1        0.0822
      9 N          61.7617   85.5008    7.6430 N.2     1  UNL1       -0.1526
     10 N          62.8857   84.5394    7.8921 N.2     1  UNL1       -0.1506
     11 C          63.1627   84.5220    9.3662 C.2     1  UNL1        0.1062
     12 C          64.1595   83.7633   10.1913 C.3     1  UNL1        0.1726
     13 N          64.2034   83.9553   11.6783 N.2     1  UNL1       -0.2638
     14 C          63.2504   84.9060   12.3402 C.2     1  UNL1        0.0781
     15 C          62.2537   85.6647   11.5151 C.2     1  UNL1        0.0213
     16 C          62.2098   85.4727   10.0282 C.2     1  UNL1        0.0340
     17 C          62.8391   82.5629   14.1679 C.ar    1  UNL1        0.0584
     18 C          61.5162   81.8581   14.1131 C.ar    1  UNL1        0.0453
     19 C          61.7281   80.5244   13.4602 C.ar    1  UNL1        0.1798
     20 O          63.1822   80.4049   13.1114 O.2     1  UNL1       -0.4473
     21 C          63.8688   81.6647   13.5488 C.ar    1  UNL1        0.1812
     22 O          63.8374   88.0170   16.4606 O.3     1  UNL1       -0.4724
     23 C          63.1655   89.2168   15.8615 C.3     1  UNL1        0.2211
     24 C          63.9025   90.5198   15.7669 C.3     1  UNL1        0.0995
     25 N          63.4618   91.6925   16.5919 N.3     1  UNL1       -0.3190
     26 H          64.0706   92.4889   16.4035 H       1  UNL1        0.1189
     27 H          63.5144   91.4509   17.5815 H       1  UNL1        0.1189
     28 C          65.0803   90.6503   14.8472 C.3     1  UNL1        0.0472
     29 C          64.9056   91.2559   13.4860 C.2     1  UNL1       -0.0005
     30 C          65.6239   92.4626   12.9590 C.2     1  UNL1        0.0942
     31 N          65.1440   92.7136   11.5602 N.2     1  UNL1       -0.2482
     32 C          64.1291   91.6619   11.2226 C.2     1  UNL1        0.0631
     33 C          63.3202   91.4082    9.9853 C.3     1  UNL1        0.0717
     34 C          62.3637   90.2535    9.9380 C.2     1  UNL1       -0.0198
     35 C          62.2164   89.3527   11.1283 C.2     1  UNL1       -0.0042
     36 C          63.0254   89.6064   12.3657 C.2     1  UNL1        0.0006
     37 C          63.9817   90.7610   12.4128 C.2     1  UNL1        0.0114
@<TRIPOS>BOND
     1     7     8    1
     2     8     9    2
     3     9    10    1
     4    10    11    2
     5    11    12    1
     6    12    13    1
     7    13    14    2
     8    14     1    1
     9     1     2   ar
    10     2     3   ar
    11     3    22    1
    12    22    23    1
    13    23    24    1
    14    24    25    1
    15    24    28    1
    16    28    29    1
    17    29    30    2
    18    30    31    1
    19    31    32    2
    20    32    33    1
    21    33    34    1
    22    34    35    2
    23    35    36    1
    24    36    37    2
    25     3     4   ar
    26     4     5   ar
    27     5     6   ar
    28     6    17    1
    29    17    18   ar
    30    18    19   ar
    31    19    20   ar
    32    20    21   ar
    33    14    15    1
    34    15    16    2
    35    16     8    1
    36    16    11    1
    37     6     1   ar
    38    21    17   ar
    39    37    29    1
    40    37    32    1
    41    25    26    1
    42    25    27    1
@<TRIPOS>MOLECULE
*****
 37 42 0 0 0
SMALL
GASTEIGER

@<TRIPOS>ATOM
      1 C          62.2883   87.0461   10.5893 C.ar    1  UNL1        0.0380
      2 C          62.6171   88.0949   11.6101 C.ar    1  UNL1        0.0415
      3 C          62.2316   89.5242   11.3680 C.ar    1  UNL1        0.1578
      4 C          61.5173   89.9046   10.1050 C.ar    1  UNL1        0.1356
      5 N          61.1885   88.8558    9.0842 N.ar    1  UNL1       -0.2405
      6 C          61.5741   87.4266    9.3264 C.ar    1  UNL1        0.0861
      7 C          62.0670   83.0603   14.9317 C.3     1  UNL1        0.0540
      8 C          62.6624   82.6699   13.6114 C.2     1  UNL1        0.0822
      9 N          63.2288   81.3255   13.2627 N.2     1  UNL1       -0.1526
     10 N          63.7124   81.3802   11.8438 N.2     1  UNL1       -0.1506
     11 C          63.4449   82.7584   11.3157 C.2     1  UNL1        0.1062
     12 C          63.7083   83.3905    9.9811 C.3     1  UNL1        0.1726
     13 N          63.3228   84.8197    9.7390 N.2     1  UNL1       -0.2638
     14 C          62.6738   85.6168   10.8315 C.2     1  UNL1        0.0781
     15 C          62.4104   84.9847   12.1660 C.2     1  UNL1        0.0213
     16 C          62.7959   83.5555   12.4081 C.2     1  UNL1        0.0340
     17 C          61.2453   86.3778    8.3056 C.ar    1  UNL1        0.0584
     18 C          62.2358   85.5514    7.5400 C.ar    1  UNL1        0.0453
     19 C          61.4710   84.6341    6.6325 C.ar    1  UNL1        0.1798
     20 O          60.0078   84.8936    6.8371 O.2     1  UNL1       -0.4473
     21 C          59.8683   85.9712    7.8711 C.ar    1  UNL1        0.1812
     22 O          62.5603   90.5729   12.3887 O.3     1  UNL1       -0.4724
     23 C          63.6084   91.6046   12.0934 C.3     1  UNL1        0.2211
     24 C          64.8197   91.7157   12.9710 C.3     1  UNL1        0.0995
     25 N          65.5986   92.9970   13.0156 N.3     1  UNL1       -0.3190
     26 H          66.3836   92.8954   13.6589 H       1  UNL1        0.1189
     27 H          64.9924   93.7524   13.3354 H       1  UNL1        0.1189
     28 C          65.2522   90.5458   13.8041 C.3     1  UNL1        0.0472
     29 C          64.4282   90.1187   14.9825 C.2     1  UNL1       -0.0005
     30 C          63.7583   91.0308   15.9670 C.2     1  UNL1        0.0942
     31 N          63.0455   90.1803   16.9762 N.2     1  UNL1       -0.2482
     32 C          63.2748   88.7425   16.6155 C.2     1  UNL1        0.0631
     33 C          62.8159   87.4631   17.2497 C.3     1  UNL1        0.0717
     34 C          63.2115   86.1454   16.6518 C.2     1  UNL1       -0.0198
     35 C          64.0660   86.1074   15.4197 C.2     1  UNL1       -0.0042
     36 C          64.5249   87.3868   14.7854 C.2     1  UNL1        0.0006
     37 C          64.1293   88.7044   15.3833 C.2     1  UNL1        0.0114
@<TRIPOS>BOND
     1     7     8    1
     2     8     9    2
     3     9    10    1
     4    10    11    2
     5    11    12    1
     6    12    13    1
     7    13    14    2
     8    14     1    1
     9     1     2   ar
    10     2     3   ar
    11     3    22    1
    12    22    23    1
    13    23    24    1
    14    24    25    1
    15    24    28    1
    16    28    29    1
    17    29    30    2
    18    30    31    1
    19    31    32    2
    20    32    33    1
    21    33    34    1
    22    34    35    2
    23    35    36    1
    24    36    37    2
    25     3     4   ar
    26     4     5   ar
    27     5     6   ar
    28     6    17    1
    29    17    18   ar
    30    18    19   ar
    31    19    20   ar
    32    20    21   ar
    33    14    15    1
    34    15    16    2
    35    16     8    1
    36    16    11    1
    37     6     1   ar
    38    21    17   ar
    39    37    29    1
    40    37    32    1
    41    25    26    1
    42    25    27    1
@<TRIPOS>MOLECULE
*****
 37 42 0 0 0
SMALL
GASTEIGER

@<TRIPOS>ATOM
      1 C          63.6922   90.2589   12.9398 C.ar    1  UNL1        0.0380
      2 C          62.8076   89.9760   11.7620 C.ar    1  UNL1        0.0415
      3 C          62.9664   90.7672   10.4975 C.ar    1  UNL1        0.1578
      4 C          64.0098   91.8413   10.4109 C.ar    1  UNL1        0.1356
      5 N          64.8945   92.1242   11.5889 N.ar    1  UNL1       -0.2405
      6 C          64.7357   91.3330   12.8533 C.ar    1  UNL1        0.0861
      7 C          64.8270   84.8335   14.9569 C.3     1  UNL1        0.0540
      8 C          64.1872   85.8344   15.8728 C.2     1  UNL1        0.0822
      9 N          63.7898   85.5962   17.2994 N.2     1  UNL1       -0.1526
     10 N          63.1894   86.8638   17.8311 N.2     1  UNL1       -0.1506
     11 C          63.2158   87.8854   16.7331 C.2     1  UNL1        0.1062
     12 C          62.7579   89.3128   16.6791 C.3     1  UNL1        0.1726
     13 N          62.9168   90.1039   15.4146 N.2     1  UNL1       -0.2638
     14 C          63.5334   89.4677   14.2043 C.2     1  UNL1        0.0781
     15 C          63.9912   88.0403   14.2583 C.2     1  UNL1        0.0213
     16 C          63.8324   87.2492   15.5228 C.2     1  UNL1        0.0340
     17 C          65.6203   91.6159   14.0312 C.ar    1  UNL1        0.0584
     18 C          67.0806   91.2893   14.1357 C.ar    1  UNL1        0.0453
     19 C          67.5627   91.7466   15.4805 C.ar    1  UNL1        0.1798
     20 O          66.4004   92.3558   16.2071 O.2     1  UNL1       -0.4473
     21 C          65.2000   92.2751   15.3114 C.ar    1  UNL1        0.1812
     22 O          62.0818   90.4843    9.3196 O.3     1  UNL1       -0.4724
     23 C          60.6837   89.9850    9.5345 C.3     1  UNL1        0.2211
     24 C          60.3255   88.5761    9.1649 C.3     1  UNL1        0.0995
     25 N          59.5697   88.3019    7.8985 N.3     1  UNL1       -0.3190
     26 H          59.4129   87.2982    7.8066 H       1  UNL1        0.1189
     27 H          60.1103   88.6360    7.1007 H       1  UNL1        0.1189
     28 C          60.7230   87.4413   10.0617 C.3     1  UNL1        0.0472
     29 C          61.6543   86.3784    9.5584 C.2     1  UNL1       -0.0005
     30 C          62.0508   86.1586    8.1286 C.2     1  UNL1        0.0942
     31 N          62.9941   84.9931    8.0831 N.2     1  UNL1       -0.2482
     32 C          63.1805   84.4927    9.4849 C.2     1  UNL1        0.0631
     33 C          63.9972   83.3681   10.0488 C.3     1  UNL1        0.0717
     34 C          63.9860   83.0996   11.5246 C.2     1  UNL1       -0.0198
     35 C          63.1580   83.9558   12.4363 C.2     1  UNL1       -0.0042
     36 C          62.3412   85.0804   11.8723 C.2     1  UNL1        0.0006
     37 C          62.3525   85.3489   10.3966 C.2     1  UNL1        0.0114
@<TRIPOS>BOND
     1     7     8    1
     2     8     9    2
     3     9    10    1
     4    10    11    2
     5    11    12    1
     6    12    13    1
     7    13    14    2
     8    14     1    1
     9     1     2   ar
    10     2     3   ar
    11     3    22    1
    12    22    23    1
    13    23    24    1
    14    24    25    1
    15    24    28    1
    16    28    29    1
    17    29    30    2
    18    30    31    1
    19    31    32    2
    20    32    33    1
    21    33    34    1
    22    34    35    2
    23    35    36    1
    24    36    37    2
    25     3     4   ar
    26     4     5   ar
    27     5     6   ar
    28     6    17    1
    29    17    18   ar
    30    18    19   ar
    31    19    20   ar
    32    20    21   ar
    33    14    15    1
    34    15    16    2
    35    16     8    1
    36    16    11    1
    37     6     1   ar
    38    21    17   ar
    39    37    29    1
    40    37    32    1
    41    25    26    1
    42    25    27    1
@<TRIPOS>MOLECULE
*****
 37 42 0 0 0
SMALL
GASTEIGER

@<TRIPOS>ATOM
      1 C          63.5232   87.9935   13.1433 C.ar    1  UNL1        0.0380
      2 C          64.1519   88.9778   14.0844 C.ar    1  UNL1        0.0415
      3 C          64.1300   90.4427   13.7622 C.ar    1  UNL1        0.1578
      4 C          63.4794   90.9232   12.4989 C.ar    1  UNL1        0.1356
      5 N          62.8506   89.9387   11.5578 N.ar    1  UNL1       -0.2405
      6 C          62.8726   88.4739   11.8800 C.ar    1  UNL1        0.0861
      7 C          63.9375   82.8305   10.3212 C.3     1  UNL1        0.0540
      8 C          63.8100   82.8379   11.8158 C.2     1  UNL1        0.0822
      9 N          63.7751   81.6295   12.7037 N.2     1  UNL1       -0.1526
     10 N          63.6385   82.0999   14.1215 N.2     1  UNL1       -0.1506
     11 C          63.5889   83.5990   14.1098 C.2     1  UNL1        0.1062
     12 C          63.4610   84.6076   15.2126 C.3     1  UNL1        0.1726
     13 N          63.4391   86.0724   14.8904 N.2     1  UNL1       -0.2638
     14 C          63.5451   86.5286   13.4654 C.2     1  UNL1        0.0781
     15 C          63.6730   85.5200   12.3626 C.2     1  UNL1        0.0213
     16 C          63.6949   84.0552   12.6848 C.2     1  UNL1        0.0340
     17 C          62.2439   87.4894   10.9389 C.ar    1  UNL1        0.0584
     18 C          62.7617   87.1117    9.5827 C.ar    1  UNL1        0.0453
     19 C          61.8248   86.0987    8.9945 C.ar    1  UNL1        0.1798
     20 O          60.7278   85.8504    9.9871 O.2     1  UNL1       -0.4473
     21 C          60.9869   86.7099   11.1887 C.ar    1  UNL1        0.1812
     22 O          64.7587   91.4271   14.7033 O.3     1  UNL1       -0.4724
     23 C          66.2524   91.5165   14.8073 C.3     1  UNL1        0.2211
     24 C          67.0033   92.5180   13.9808 C.3     1  UNL1        0.0995
     25 N          68.4811   92.6908   14.1715 N.3     1  UNL1       -0.3190
     26 H          68.8249   93.4075   13.5323 H       1  UNL1        0.1189
     27 H          68.9543   91.8080   13.9788 H       1  UNL1        0.1189
     28 C          66.2764   93.3467   12.9636 C.3     1  UNL1        0.0472
     29 C          66.7694   93.3989   11.5478 C.2     1  UNL1       -0.0005
     30 C          67.5143   92.3107   10.8330 C.2     1  UNL1        0.0942
     31 N          67.8093   92.7877    9.4417 N.2     1  UNL1       -0.2482
     32 C          67.2467   94.1706    9.2968 C.2     1  UNL1        0.0631
     33 C          67.2366   95.1347    8.1477 C.3     1  UNL1        0.0717
     34 C          66.5837   96.4766    8.3002 C.2     1  UNL1       -0.0198
     35 C          65.9411   96.8543    9.6019 C.2     1  UNL1       -0.0042
     36 C          65.9512   95.8902   10.7510 C.2     1  UNL1        0.0006
     37 C          66.6040   94.5483   10.5984 C.2     1  UNL1        0.0114
@<TRIPOS>BOND
     1     7     8    1
     2     8     9    2
     3     9    10    1
     4    10    11    2
     5    11    12    1
     6    12    13    1
     7    13    14    2
     8    14     1    1
     9     1     2   ar
    10     2     3   ar
    11     3    22    1
    12    22    23    1
    13    23    24    1
    14    24    25    1
    15    24    28    1
    16    28    29    1
    17    29    30    2
    18    30    31    1
    19    31    32    2
    20    32    33    1
    21    33    34    1
    22    34    35    2
    23    35    36    1
    24    36    37    2
    25     3     4   ar
    26     4     5   ar
    27     5     6   ar
    28     6    17    1
    29    17    18   ar
    30    18    19   ar
    31    19    20   ar
    32    20    21   ar
    33    14    15    1
    34    15    16    2
    35    16     8    1
    36    16    11    1
    37     6     1   ar
    38    21    17   ar
    39    37    29    1
    40    37    32    1
    41    25    26    1
    42    25    27    1
@<TRIPOS>MOLECULE
*****
 37 42 0 0 0
SMALL
GASTEIGER

@<TRIPOS>ATOM
      1 C          63.1118   84.8726   14.0760 C.ar    1  UNL1        0.0380
      2 C          63.3781   86.2009   14.7200 C.ar    1  UNL1        0.0415
      3 C          63.3226   86.3353   16.2130 C.ar    1  UNL1        0.1578
      4 C          63.0008   85.1413   17.0620 C.ar    1  UNL1        0.1356
      5 N          62.7345   83.8129   16.4180 N.ar    1  UNL1       -0.2405
      6 C          62.7900   83.6786   14.9250 C.ar    1  UNL1        0.0861
      7 C          60.4169   87.0767    9.3147 C.3     1  UNL1        0.0540
      8 C          61.5094   86.0651    9.1329 C.2     1  UNL1        0.0822
      9 N          62.0096   85.5333    7.8226 N.2     1  UNL1       -0.1526
     10 N          63.1028   84.5472    8.1096 N.2     1  UNL1       -0.1506
     11 C          63.2783   84.4695    9.5972 C.2     1  UNL1        0.1062
     12 C          64.2076   83.6658   10.4576 C.3     1  UNL1        0.1726
     13 N          64.1521   83.8002   11.9506 N.2     1  UNL1       -0.2638
     14 C          63.1673   84.7383   12.5831 C.2     1  UNL1        0.0781
     15 C          62.2380   85.5420   11.7226 C.2     1  UNL1        0.0213
     16 C          62.2935   85.4077   10.2297 C.2     1  UNL1        0.0340
     17 C          62.5237   82.3503   14.2810 C.ar    1  UNL1        0.0584
     18 C          63.5329   81.4951   13.5740 C.ar    1  UNL1        0.0453
     19 C          62.8343   80.2602   13.0870 C.ar    1  UNL1        0.1798
     20 O          61.3932   80.3523   13.4931 O.2     1  UNL1       -0.4473
     21 C          61.2013   81.6440   14.2311 C.ar    1  UNL1        0.1812
     22 O          63.5889   87.6635   16.8569 O.3     1  UNL1       -0.4724
     23 C          62.8568   88.8853   16.3865 C.3     1  UNL1        0.2211
     24 C          63.6148   90.0221   15.7676 C.3     1  UNL1        0.0995
     25 N          63.4310   91.4172   16.2872 N.3     1  UNL1       -0.3190
     26 H          64.0185   92.0586   15.7545 H       1  UNL1        0.1189
     27 H          63.6962   91.4511   17.2715 H       1  UNL1        0.1189
     28 C          64.5567   89.7638   14.6291 C.3     1  UNL1        0.0472
     29 C          64.3082   90.3966   13.2919 C.2     1  UNL1       -0.0005
     30 C          63.3584   89.8981   12.2434 C.2     1  UNL1        0.0942
     31 N          63.4292   90.8324   11.0720 N.2     1  UNL1       -0.2482
     32 C          64.4228   91.9083   11.3966 C.2     1  UNL1        0.0631
     33 C          64.9031   93.0983   10.6201 C.3     1  UNL1        0.0717
     34 C          65.9266   94.0192   11.2155 C.2     1  UNL1       -0.0198
     35 C          66.4699   93.7498   12.5875 C.2     1  UNL1       -0.0042
     36 C          65.9896   92.5597   13.3640 C.2     1  UNL1        0.0006
     37 C          64.9661   91.6389   12.7685 C.2     1  UNL1        0.0114
@<TRIPOS>BOND
     1     7     8    1
     2     8     9    2
     3     9    10    1
     4    10    11    2
     5    11    12    1
     6    12    13    1
     7    13    14    2
     8    14     1    1
     9     1     2   ar
    10     2     3   ar
    11     3    22    1
    12    22    23    1
    13    23    24    1
    14    24    25    1
    15    24    28    1
    16    28    29    1
    17    29    30    2
    18    30    31    1
    19    31    32    2
    20    32    33    1
    21    33    34    1
    22    34    35    2
    23    35    36    1
    24    36    37    2
    25     3     4   ar
    26     4     5   ar
    27     5     6   ar
    28     6    17    1
    29    17    18   ar
    30    18    19   ar
    31    19    20   ar
    32    20    21   ar
    33    14    15    1
    34    15    16    2
    35    16     8    1
    36    16    11    1
    37     6     1   ar
    38    21    17   ar
    39    37    29    1
    40    37    32    1
    41    25    26    1
    42    25    27    1
@<TRIPOS>MOLECULE
*****
 37 42 0 0 0
SMALL
GASTEIGER

@<TRIPOS>ATOM
      1 C          62.3480   87.4381   10.8437 C.ar    1  UNL1        0.0380
      2 C          62.9292   88.4025   11.8347 C.ar    1  UNL1        0.0415
      3 C          62.6329   89.8683   11.7173 C.ar    1  UNL1        0.1578
      4 C          61.7553   90.3696   10.6088 C.ar    1  UNL1        0.1356
      5 N          61.1741   89.4052    9.6178 N.ar    1  UNL1       -0.2405
      6 C          61.4705   87.9394    9.7353 C.ar    1  UNL1        0.0861
      7 C          62.1764   83.1849   14.9268 C.3     1  UNL1        0.0540
      8 C          62.6346   82.8472   13.5390 C.2     1  UNL1        0.0822
      9 N          63.0702   81.4944   13.0590 N.2     1  UNL1       -0.1526
     10 N          63.4425   81.6142   11.6109 N.2     1  UNL1       -0.1506
     11 C          63.2369   83.0409   11.1959 C.2     1  UNL1        0.1062
     12 C          63.4399   83.7446    9.8869 C.3     1  UNL1        0.1726
     13 N          63.1436   85.2103    9.7695 N.2     1  UNL1       -0.2638
     14 C          62.6443   85.9723   10.9611 C.2     1  UNL1        0.0781
     15 C          62.4413   85.2687   12.2701 C.2     1  UNL1        0.0213
     16 C          62.7376   83.8029   12.3875 C.2     1  UNL1        0.0340
     17 C          60.8893   86.9750    8.7442 C.ar    1  UNL1        0.0584
     18 C          61.6652   86.0409    7.8636 C.ar    1  UNL1        0.0453
     19 C          60.6856   85.2639    7.0350 C.ar    1  UNL1        0.1798
     20 O          59.3041   85.7177    7.4036 O.2     1  UNL1       -0.4473
     21 C          59.4300   86.7752    8.4599 C.ar    1  UNL1        0.1812
     22 O          63.2141   90.8327   12.7082 O.3     1  UNL1       -0.4724
     23 C          64.3777   91.6962   12.3206 C.3     1  UNL1        0.2211
     24 C          65.5587   91.8190   13.2373 C.3     1  UNL1        0.0995
     25 N          65.6341   90.9817   14.4796 N.3     1  UNL1       -0.3190
     26 H          66.4976   91.1928   14.9799 H       1  UNL1        0.1189
     27 H          65.6213   89.9940   14.2252 H       1  UNL1        0.1189
     28 C          66.6642   92.7792   12.9117 C.3     1  UNL1        0.0472
     29 C          67.0428   93.0301   11.4821 C.2     1  UNL1       -0.0005
     30 C          67.8261   92.1022   10.6015 C.2     1  UNL1        0.0942
     31 N          67.9720   92.7516    9.2573 N.2     1  UNL1       -0.2482
     32 C          67.2789   94.0810    9.3071 C.2     1  UNL1        0.0631
     33 C          67.0965   95.1569    8.2781 C.3     1  UNL1        0.0717
     34 C          66.3398   96.4051    8.6239 C.2     1  UNL1       -0.0198
     35 C          65.7655   96.5771    9.9989 C.2     1  UNL1       -0.0042
     36 C          65.9479   95.5011   11.0280 C.2     1  UNL1        0.0006
     37 C          66.7046   94.2531   10.6820 C.2     1  UNL1        0.0114
@<TRIPOS>BOND
     1     7     8    1
     2     8     9    2
     3     9    10    1
     4    10    11    2
     5    11    12    1
     6    12    13    1
     7    13    14    2
     8    14     1    1
     9     1     2   ar
    10     2     3   ar
    11     3    22    1
    12    22    23    1
    13    23    24    1
    14    24    25    1
    15    24    28    1
    16    28    29    1
    17    29    30    2
    18    30    31    1
    19    31    32    2
    20    32    33    1
    21    33    34    1
    22    34    35    2
    23    35    36    1
    24    36    37    2
    25     3     4   ar
    26     4     5   ar
    27     5     6   ar
    28     6    17    1
    29    17    18   ar
    30    18    19   ar
    31    19    20   ar
    32    20    21   ar
    33    14    15    1
    34    15    16    2
    35    16     8    1
    36    16    11    1
    37     6     1   ar
    38    21    17   ar
    39    37    29    1
    40    37    32    1
    41    25    26    1
    42    25    27    1
