@<TRIPOS>MOLECULE
*****
 39 43 0 0 0
SMALL
GASTEIGER

@<TRIPOS>ATOM
      1 C          64.6440   90.8145   14.7431 C.3     1  UNL1        0.2246
      2 C          65.6293   91.7447   14.0995 C.2     1  UNL1        0.0436
      3 C          66.0933   92.9690   14.8315 C.2     1  UNL1        0.0288
      4 C          65.5722   93.2632   16.2070 C.2     1  UNL1        0.0896
      5 N          64.5870   92.3330   16.8505 N.am    1  UNL1       -0.1770
      6 C          64.1229   91.1087   16.1185 C.2     1  UNL1        0.2627
      7 O          63.1377   90.1786   16.7621 O.2     1  UNL1       -0.2719
      8 C          61.7639   88.3792   10.1760 C.3     1  UNL1        0.0312
      9 C          62.4139   87.5125   11.2135 C.2     1  UNL1        0.0136
     10 C          62.3370   86.0190   11.0985 C.2     1  UNL1        0.0107
     11 C          62.9869   85.1524   12.1360 C.2     1  UNL1        0.0510
     12 C          63.7139   85.7793   13.2886 C.2     1  UNL1        0.0613
     13 C          63.7908   87.2729   13.4037 C.2     1  UNL1        0.2246
     14 N          64.4330   88.1694   14.4204 N.2     1  UNL1       -0.0378
     15 C          64.1800   89.5902   14.0112 C.2     1  UNL1        0.3605
     16 N          63.3813   89.5717   12.7416 N.2     1  UNL1       -0.0547
     17 C          63.1408   88.1395   12.3661 C.3     1  UNL1        0.2976
     18 N          62.9100   83.6587   12.0209 N.pl3   1  UNL1       -0.3046
     19 C          62.3478   82.8474   13.1504 C.3     1  UNL1        0.1081
     20 C          62.2708   81.3538   13.0353 C.3     1  UNL1        0.0939
     21 N          62.7562   80.6715   11.7908 N.3     1  UNL1       -0.2674
     22 C          63.3184   81.4828   10.6613 C.3     1  UNL1        0.0939
     23 C          63.3953   82.9764   10.7763 C.3     1  UNL1        0.1081
     24 C          62.6793   79.1780   11.6756 C.3     1  UNL1        0.1108
     25 C          62.7902   78.5227   10.3309 C.3     1  UNL1        0.2105
     26 F          62.3146   79.2429    9.1040 F       1  UNL1       -0.2328
     27 N          66.1504   91.4505   12.7241 N.pl3   1  UNL1       -0.3329
     28 H          65.6495   90.8502   12.1259 H       1  UNL1        0.1466
     29 C          67.4349   92.0710   12.2602 C.3     1  UNL1        0.1211
     30 C          67.5401   92.6276   10.8712 C.3     1  UNL1        0.1522
     31 O          68.0772   91.7749    9.7602 O.3     1  UNL1       -0.3783
     32 H          68.3080   90.8990   10.1075 H       1  UNL1        0.2109
     33 C          67.1082   94.0370   10.5933 C.ar    1  UNL1        0.0067
     34 C          66.2569   94.7703   11.5870 C.ar    1  UNL1       -0.0018
     35 C          65.8250   96.1796   11.3090 C.ar    1  UNL1        0.0006
     36 C          66.2445   96.8557   10.0374 C.ar    1  UNL1        0.0114
     37 C          67.0959   96.1224    9.0438 C.ar    1  UNL1        0.0574
     38 CL         67.5154   96.7984    7.7722 Cl      1  UNL1       -0.0823
     39 C          67.5278   94.7130    9.3217 C.ar    1  UNL1        0.0095
@<TRIPOS>BOND
     1     8     9    1
     2     9    10    2
     3    10    11    1
     4    11    18    1
     5    18    19    1
     6    19    20    1
     7    20    21    1
     8    21    24    1
     9    24    25    1
    10    25    26    1
    11    21    22    1
    12    22    23    1
    13    11    12    2
    14    12    13    1
    15    13    14    2
    16    14    15    1
    17    15     1    1
    18     1     2    1
    19     2    27    1
    20    27    29    1
    21    29    30    1
    22    30    31    1
    23    30    33    1
    24    33    34   ar
    25    34    35   ar
    26    35    36   ar
    27    36    37   ar
    28    37    38    1
    29    37    39   ar
    30     2     3    2
    31     3     4    1
    32     4     5    2
    33     5     6    1
    34     6     7    2
    35    15    16    2
    36    16    17    1
    37    17     9    1
    38    23    18    1
    39    17    13    1
    40     6     1    1
    41    39    33   ar
    42    27    28    1
    43    31    32    1
@<TRIPOS>MOLECULE
*****
 39 43 0 0 0
SMALL
GASTEIGER

@<TRIPOS>ATOM
      1 C          63.1688   83.4785   13.5957 C.3     1  UNL1        0.2246
      2 C          62.6030   83.1191   12.2538 C.2     1  UNL1        0.0436
      3 C          62.3581   81.6811   11.9039 C.2     1  UNL1        0.0288
      4 C          62.6791   80.6027   12.8959 C.2     1  UNL1        0.0896
      5 N          63.2449   80.9621   14.2377 N.am    1  UNL1       -0.1770
      6 C          63.4898   82.4001   14.5876 C.2     1  UNL1        0.2627
      7 O          64.0556   82.7596   15.9294 O.2     1  UNL1       -0.2719
      8 C          62.8756   87.8996   17.5266 C.3     1  UNL1        0.0312
      9 C          63.4391   88.1370   16.1569 C.2     1  UNL1        0.0136
     10 C          63.9329   89.5009   15.7751 C.2     1  UNL1        0.0107
     11 C          64.4963   89.7383   14.4055 C.2     1  UNL1        0.0510
     12 C          64.5660   88.6118   13.4174 C.2     1  UNL1        0.0613
     13 C          64.0722   87.2478   13.7993 C.2     1  UNL1        0.2246
     14 N          64.0135   85.9537   13.0431 N.2     1  UNL1       -0.0378
     15 C          63.4137   84.9165   13.9456 C.2     1  UNL1        0.3605
     16 N          63.1017   85.5695   15.2594 N.2     1  UNL1       -0.0547
     17 C          63.5087   87.0104   15.1690 C.3     1  UNL1        0.2976
     18 N          64.9901   91.1024   14.0236 N.pl3   1  UNL1       -0.3046
     19 C          64.7840   91.6110   12.6276 C.3     1  UNL1        0.1081
     20 C          65.2778   92.9750   12.2458 C.3     1  UNL1        0.0939
     21 N          65.9777   93.8303   13.2600 N.3     1  UNL1       -0.2674
     22 C          66.1837   93.3217   14.6560 C.3     1  UNL1        0.0939
     23 C          65.6900   91.9577   15.0378 C.3     1  UNL1        0.1081
     24 C          66.4715   95.1942   12.8783 C.3     1  UNL1        0.1108
     25 C          66.2215   95.7229   11.4969 C.3     1  UNL1        0.2105
     26 F          67.2026   95.4425   10.3975 F       1  UNL1       -0.2328
     27 N          62.2820   84.1974   11.2618 N.pl3   1  UNL1       -0.3329
     28 H          61.4706   84.7436   11.3738 H       1  UNL1        0.1466
     29 C          63.1972   84.4436   10.0991 C.3     1  UNL1        0.1211
     30 C          62.6977   85.1869    8.8958 C.3     1  UNL1        0.1522
     31 O          63.0123   84.6824    7.5187 O.3     1  UNL1       -0.3783
     32 H          63.5426   83.8728    7.5842 H       1  UNL1        0.2109
     33 C          61.8836   86.4347    9.0696 C.ar    1  UNL1        0.0067
     34 C          60.5057   86.5190    8.4829 C.ar    1  UNL1       -0.0018
     35 C          59.6915   87.7668    8.6567 C.ar    1  UNL1        0.0006
     36 C          60.2553   88.9303    9.4172 C.ar    1  UNL1        0.0114
     37 C          61.6332   88.8460   10.0039 C.ar    1  UNL1        0.0574
     38 CL         62.1970   90.0095   10.7644 Cl      1  UNL1       -0.0823
     39 C          62.4474   87.5982    9.8301 C.ar    1  UNL1        0.0095
@<TRIPOS>BOND
     1     8     9    1
     2     9    10    2
     3    10    11    1
     4    11    18    1
     5    18    19    1
     6    19    20    1
     7    20    21    1
     8    21    24    1
     9    24    25    1
    10    25    26    1
    11    21    22    1
    12    22    23    1
    13    11    12    2
    14    12    13    1
    15    13    14    2
    16    14    15    1
    17    15     1    1
    18     1     2    1
    19     2    27    1
    20    27    29    1
    21    29    30    1
    22    30    31    1
    23    30    33    1
    24    33    34   ar
    25    34    35   ar
    26    35    36   ar
    27    36    37   ar
    28    37    38    1
    29    37    39   ar
    30     2     3    2
    31     3     4    1
    32     4     5    2
    33     5     6    1
    34     6     7    2
    35    15    16    2
    36    16    17    1
    37    17     9    1
    38    23    18    1
    39    17    13    1
    40     6     1    1
    41    39    33   ar
    42    27    28    1
    43    31    32    1
@<TRIPOS>MOLECULE
*****
 39 43 0 0 0
SMALL
GASTEIGER

@<TRIPOS>ATOM
      1 C          65.1984   91.8265   13.3616 C.3     1  UNL1        0.2246
      2 C          64.9590   92.2148   11.9326 C.2     1  UNL1        0.0436
      3 C          65.4024   93.5591   11.4364 C.2     1  UNL1        0.0288
      4 C          66.0852   94.5151   12.3690 C.2     1  UNL1        0.0896
      5 N          66.3246   94.1268   13.7980 N.am    1  UNL1       -0.1770
      6 C          65.8812   92.7825   14.2942 C.2     1  UNL1        0.2627
      7 O          66.1207   92.3942   15.7231 O.2     1  UNL1       -0.2719
      8 C          63.0343   88.4509   17.7213 C.3     1  UNL1        0.0312
      9 C          63.3616   87.8502   16.3863 C.2     1  UNL1        0.0136
     10 C          63.1413   86.3856   16.1487 C.2     1  UNL1        0.0107
     11 C          63.4685   85.7848   14.8139 C.2     1  UNL1        0.0510
     12 C          64.0161   86.6486   13.7165 C.2     1  UNL1        0.0613
     13 C          64.2364   88.1132   13.9542 C.2     1  UNL1        0.2246
     14 N          64.7592   89.2060   13.0696 N.2     1  UNL1       -0.0378
     15 C          64.7551   90.4822   13.8579 C.2     1  UNL1        0.3605
     16 N          64.2297   90.1781   15.2296 N.2     1  UNL1       -0.0547
     17 C          63.9092   88.7139   15.2891 C.3     1  UNL1        0.2976
     18 N          63.2482   84.3202   14.5762 N.pl3   1  UNL1       -0.3046
     19 C          64.3733   83.4641   14.0750 C.3     1  UNL1        0.1081
     20 C          64.1530   81.9995   13.8374 C.3     1  UNL1        0.0939
     21 N          62.8076   81.3910   14.1010 N.3     1  UNL1       -0.2674
     22 C          61.6824   82.2471   14.6022 C.3     1  UNL1        0.0939
     23 C          61.9027   83.7117   14.8398 C.3     1  UNL1        0.1081
     24 C          62.5872   79.9265   13.8634 C.3     1  UNL1        0.1108
     25 C          62.4831   79.4013   12.4621 C.3     1  UNL1        0.2105
     26 F          62.8322   80.2855   11.3018 F       1  UNL1       -0.2328
     27 N          64.2762   91.2588   10.9999 N.pl3   1  UNL1       -0.3329
     28 H          64.8080   90.6131   10.4808 H       1  UNL1        0.1466
     29 C          62.7832   91.2867   10.8581 C.3     1  UNL1        0.1211
     30 C          61.9633   90.1218   11.3279 C.3     1  UNL1        0.1522
     31 O          61.5773   90.0107   12.7731 O.3     1  UNL1       -0.3783
     32 H          61.9354   90.7677   13.2626 H       1  UNL1        0.2109
     33 C          61.5294   89.0681   10.3526 C.ar    1  UNL1        0.0067
     34 C          60.2922   89.2718    9.5294 C.ar    1  UNL1       -0.0018
     35 C          59.8583   88.2180    8.5540 C.ar    1  UNL1        0.0006
     36 C          60.6617   86.9605    8.4018 C.ar    1  UNL1        0.0114
     37 C          61.8989   86.7568    9.2250 C.ar    1  UNL1        0.0574
     38 CL         62.7023   85.4993    9.0728 Cl      1  UNL1       -0.0823
     39 C          62.3328   87.8106   10.2004 C.ar    1  UNL1        0.0095
@<TRIPOS>BOND
     1     8     9    1
     2     9    10    2
     3    10    11    1
     4    11    18    1
     5    18    19    1
     6    19    20    1
     7    20    21    1
     8    21    24    1
     9    24    25    1
    10    25    26    1
    11    21    22    1
    12    22    23    1
    13    11    12    2
    14    12    13    1
    15    13    14    2
    16    14    15    1
    17    15     1    1
    18     1     2    1
    19     2    27    1
    20    27    29    1
    21    29    30    1
    22    30    31    1
    23    30    33    1
    24    33    34   ar
    25    34    35   ar
    26    35    36   ar
    27    36    37   ar
    28    37    38    1
    29    37    39   ar
    30     2     3    2
    31     3     4    1
    32     4     5    2
    33     5     6    1
    34     6     7    2
    35    15    16    2
    36    16    17    1
    37    17     9    1
    38    23    18    1
    39    17    13    1
    40     6     1    1
    41    39    33   ar
    42    27    28    1
    43    31    32    1
@<TRIPOS>MOLECULE
*****
 39 43 0 0 0
SMALL
GASTEIGER

@<TRIPOS>ATOM
      1 C          61.2051   87.9463    9.8888 C.3     1  UNL1        0.2246
      2 C          61.0972   86.4752    9.6166 C.2     1  UNL1        0.0436
      3 C          60.1553   85.9748    8.5619 C.2     1  UNL1        0.0288
      4 C          59.3213   86.9455    7.7794 C.2     1  UNL1        0.0896
      5 N          59.4292   88.4166    8.0516 N.am    1  UNL1       -0.1770
      6 C          60.3712   88.9170    9.1064 C.2     1  UNL1        0.2627
      7 O          60.4791   90.3881    9.3786 O.2     1  UNL1       -0.2719
      8 C          63.8768   87.1972   15.1219 C.3     1  UNL1        0.0312
      9 C          64.1445   88.4237   14.3009 C.2     1  UNL1        0.0136
     10 C          65.0940   89.4704   14.8038 C.2     1  UNL1        0.0107
     11 C          65.3616   90.6968   13.9829 C.2     1  UNL1        0.0510
     12 C          64.6797   90.8767   12.6589 C.2     1  UNL1        0.0613
     13 C          63.7302   89.8301   12.1560 C.2     1  UNL1        0.2246
     14 N          62.9172   89.7332   10.8993 N.2     1  UNL1       -0.0378
     15 C          62.1470   88.4468   10.9435 C.2     1  UNL1        0.3605
     16 N          62.4841   87.7486   12.2276 N.2     1  UNL1       -0.0547
     17 C          63.4626   88.6036   12.9770 C.3     1  UNL1        0.2976
     18 N          66.3112   91.7435   14.4858 N.pl3   1  UNL1       -0.3046
     19 C          66.1737   93.1644   14.0251 C.3     1  UNL1        0.1081
     20 C          67.1232   94.2111   14.5280 C.3     1  UNL1        0.0939
     21 N          68.2102   93.8368   15.4916 N.3     1  UNL1       -0.2674
     22 C          68.3477   92.4160   15.9523 C.3     1  UNL1        0.0939
     23 C          67.3982   91.3693   15.4494 C.3     1  UNL1        0.1081
     24 C          69.1597   94.8834   15.9945 C.3     1  UNL1        0.1108
     25 C          70.6339   94.6074   16.0227 C.3     1  UNL1        0.2105
     26 F          71.5679   95.4345   15.1900 F       1  UNL1       -0.2328
     27 N          61.9311   85.5044   10.3990 N.pl3   1  UNL1       -0.3329
     28 H          61.7616   85.3726   11.3598 H       1  UNL1        0.1466
     29 C          63.0234   84.7346    9.7176 C.3     1  UNL1        0.1211
     30 C          63.7250   83.6257   10.4443 C.3     1  UNL1        0.1522
     31 O          64.7621   82.8042    9.7374 O.3     1  UNL1       -0.3783
     32 H          64.8567   83.1186    8.8247 H       1  UNL1        0.2109
     33 C          63.3897   83.3384   11.8778 C.ar    1  UNL1        0.0067
     34 C          64.0360   84.1334   12.9732 C.ar    1  UNL1       -0.0018
     35 C          63.7007   83.8461   14.4067 C.ar    1  UNL1        0.0006
     36 C          62.7189   82.7636   14.7448 C.ar    1  UNL1        0.0114
     37 C          62.0725   81.9686   13.6494 C.ar    1  UNL1        0.0574
     38 CL         61.0907   80.8861   13.9875 Cl      1  UNL1       -0.0823
     39 C          62.4079   82.2559   12.2159 C.ar    1  UNL1        0.0095
@<TRIPOS>BOND
     1     8     9    1
     2     9    10    2
     3    10    11    1
     4    11    18    1
     5    18    19    1
     6    19    20    1
     7    20    21    1
     8    21    24    1
     9    24    25    1
    10    25    26    1
    11    21    22    1
    12    22    23    1
    13    11    12    2
    14    12    13    1
    15    13    14    2
    16    14    15    1
    17    15     1    1
    18     1     2    1
    19     2    27    1
    20    27    29    1
    21    29    30    1
    22    30    31    1
    23    30    33    1
    24    33    34   ar
    25    34    35   ar
    26    35    36   ar
    27    36    37   ar
    28    37    38    1
    29    37    39   ar
    30     2     3    2
    31     3     4    1
    32     4     5    2
    33     5     6    1
    34     6     7    2
    35    15    16    2
    36    16    17    1
    37    17     9    1
    38    23    18    1
    39    17    13    1
    40     6     1    1
    41    39    33   ar
    42    27    28    1
    43    31    32    1
@<TRIPOS>MOLECULE
*****
 39 43 0 0 0
SMALL
GASTEIGER

@<TRIPOS>ATOM
      1 C          64.3271   94.4067   -4.6640 C.3     1  UNL1        0.2246
      2 C          63.9494   95.6330   -5.4408 C.2     1  UNL1        0.0436
      3 C          64.3247   95.7489   -6.8885 C.2     1  UNL1        0.0288
      4 C          65.0777   94.6385   -7.5594 C.2     1  UNL1        0.0896
      5 N          65.4555   93.4122   -6.7826 N.am    1  UNL1       -0.1770
      6 C          65.0801   93.2963   -5.3349 C.2     1  UNL1        0.2627
      7 O          65.4579   92.0700   -4.5580 O.2     1  UNL1       -0.2719
      8 C          65.0628   96.1259    0.9563 C.3     1  UNL1        0.0312
      9 C          64.0561   95.0689    0.6107 C.2     1  UNL1        0.0136
     10 C          63.2278   94.4400    1.6916 C.2     1  UNL1        0.0107
     11 C          62.2212   93.3831    1.3460 C.2     1  UNL1        0.0510
     12 C          62.0428   92.9550   -0.0805 C.2     1  UNL1        0.0613
     13 C          62.8711   93.5839   -1.1614 C.2     1  UNL1        0.2246
     14 N          62.9169   93.3675   -2.6450 N.2     1  UNL1       -0.0378
     15 C          63.9519   94.2908   -3.2163 C.2     1  UNL1        0.3605
     16 N          64.5457   95.0777   -2.0858 N.2     1  UNL1       -0.0547
     17 C          63.8778   94.6409   -0.8158 C.3     1  UNL1        0.2976
     18 N          61.3928   92.7542    2.4270 N.pl3   1  UNL1       -0.3046
     19 C          59.9315   93.0750    2.5346 C.3     1  UNL1        0.1081
     20 C          59.1032   92.4461    3.6155 C.3     1  UNL1        0.0939
     21 N          59.7362   91.4964    4.5888 N.3     1  UNL1       -0.2674
     22 C          61.1975   91.1756    4.4812 C.3     1  UNL1        0.0939
     23 C          62.0258   91.8045    3.4003 C.3     1  UNL1        0.1081
     24 C          58.9079   90.8675    5.6697 C.3     1  UNL1        0.1108
     25 C          59.3619   89.5925    6.3165 C.3     1  UNL1        0.2105
     26 F          59.6614   89.5622    7.7860 F       1  UNL1       -0.2328
     27 N          63.1964   96.7434   -4.7701 N.pl3   1  UNL1       -0.3329
     28 H          63.6771   97.3984   -4.2140 H       1  UNL1        0.1466
     29 C          61.7111   96.8560   -4.9465 C.3     1  UNL1        0.1211
     30 C          60.8088   95.7844   -4.4103 C.3     1  UNL1        0.1522
     31 O          60.2914   94.7131   -5.3239 O.3     1  UNL1       -0.3783
     32 H          60.6330   94.8595   -6.2199 H       1  UNL1        0.2109
     33 C          60.4239   95.7841   -2.9606 C.ar    1  UNL1        0.0067
     34 C          61.0585   96.7612   -2.0159 C.ar    1  UNL1       -0.0018
     35 C          60.6736   96.7609   -0.5661 C.ar    1  UNL1        0.0006
     36 C          59.6539   95.7836   -0.0610 C.ar    1  UNL1        0.0114
     37 C          59.0193   94.8065   -1.0057 C.ar    1  UNL1        0.0574
     38 CL         57.9996   93.8292   -0.5006 Cl      1  UNL1       -0.0823
     39 C          59.4042   94.8068   -2.4555 C.ar    1  UNL1        0.0095
@<TRIPOS>BOND
     1     8     9    1
     2     9    10    2
     3    10    11    1
     4    11    18    1
     5    18    19    1
     6    19    20    1
     7    20    21    1
     8    21    24    1
     9    24    25    1
    10    25    26    1
    11    21    22    1
    12    22    23    1
    13    11    12    2
    14    12    13    1
    15    13    14    2
    16    14    15    1
    17    15     1    1
    18     1     2    1
    19     2    27    1
    20    27    29    1
    21    29    30    1
    22    30    31    1
    23    30    33    1
    24    33    34   ar
    25    34    35   ar
    26    35    36   ar
    27    36    37   ar
    28    37    38    1
    29    37    39   ar
    30     2     3    2
    31     3     4    1
    32     4     5    2
    33     5     6    1
    34     6     7    2
    35    15    16    2
    36    16    17    1
    37    17     9    1
    38    23    18    1
    39    17    13    1
    40     6     1    1
    41    39    33   ar
    42    27    28    1
    43    31    32    1
@<TRIPOS>MOLECULE
*****
 39 43 0 0 0
SMALL
GASTEIGER

@<TRIPOS>ATOM
      1 C          61.0370   93.7168    1.2939 C.3     1  UNL1        0.2246
      2 C          60.0895   94.0454    0.1784 C.2     1  UNL1        0.0436
      3 C          60.5614   94.8560   -0.9922 C.2     1  UNL1        0.0288
      4 C          61.9808   95.3379   -1.0474 C.2     1  UNL1        0.0896
      5 N          62.9283   95.0094    0.0680 N.am    1  UNL1       -0.1770
      6 C          62.4564   94.1988    1.2387 C.2     1  UNL1        0.2627
      7 O          63.4039   93.8702    2.3541 O.2     1  UNL1       -0.2719
      8 C          56.6068   91.8103    4.7323 C.3     1  UNL1        0.0312
      9 C          58.0186   91.3837    5.0060 C.2     1  UNL1        0.0136
     10 C          58.3159   90.4685    6.1567 C.2     1  UNL1        0.0107
     11 C          59.7275   90.0419    6.4304 C.2     1  UNL1        0.0510
     12 C          60.8422   90.5306    5.5534 C.2     1  UNL1        0.0613
     13 C          60.5449   91.4458    4.4028 C.2     1  UNL1        0.2246
     14 N          61.4300   92.0848    3.3740 N.2     1  UNL1       -0.0378
     15 C          60.5652   92.9063    2.4645 C.2     1  UNL1        0.3605
     16 N          59.1456   92.7751    2.9312 N.2     1  UNL1       -0.0547
     17 C          59.1331   91.8724    4.1291 C.3     1  UNL1        0.2976
     18 N          60.0248   89.1267    7.5811 N.pl3   1  UNL1       -0.3046
     19 C          59.7378   87.6589    7.4655 C.3     1  UNL1        0.1081
     20 C          60.0350   86.7437    8.6161 C.3     1  UNL1        0.0939
     21 N          60.6193   87.2962    9.8823 N.3     1  UNL1       -0.2674
     22 C          60.9063   88.7639    9.9979 C.3     1  UNL1        0.0939
     23 C          60.6090   89.6792    8.8473 C.3     1  UNL1        0.1081
     24 C          60.9165   86.3810   11.0330 C.3     1  UNL1        0.1108
     25 C          62.0888   85.4476   10.9655 C.3     1  UNL1        0.2105
     26 F          62.7785   85.2031    9.6561 F       1  UNL1       -0.2328
     27 N          58.6701   93.5635    0.2335 N.pl3   1  UNL1       -0.3329
     28 H          58.3494   93.0660    1.0202 H       1  UNL1        0.1466
     29 C          57.7394   93.8395   -0.9099 C.3     1  UNL1        0.1211
     30 C          57.2549   92.7114   -1.7717 C.3     1  UNL1        0.1522
     31 O          56.6798   91.4784   -1.1399 O.3     1  UNL1       -0.3783
     32 H          56.6945   91.5729   -0.1746 H       1  UNL1        0.2109
     33 C          57.3455   92.8162   -3.2653 C.ar    1  UNL1        0.0067
     34 C          58.3846   93.6967   -3.8937 C.ar    1  UNL1       -0.0018
     35 C          58.4752   93.8015   -5.3873 C.ar    1  UNL1        0.0006
     36 C          57.5267   93.0258   -6.2525 C.ar    1  UNL1        0.0114
     37 C          56.4876   92.1453   -5.6240 C.ar    1  UNL1        0.0574
     38 CL         55.5391   91.3695   -6.4893 Cl      1  UNL1       -0.0823
     39 C          56.3970   92.0404   -4.1305 C.ar    1  UNL1        0.0095
@<TRIPOS>BOND
     1     8     9    1
     2     9    10    2
     3    10    11    1
     4    11    18    1
     5    18    19    1
     6    19    20    1
     7    20    21    1
     8    21    24    1
     9    24    25    1
    10    25    26    1
    11    21    22    1
    12    22    23    1
    13    11    12    2
    14    12    13    1
    15    13    14    2
    16    14    15    1
    17    15     1    1
    18     1     2    1
    19     2    27    1
    20    27    29    1
    21    29    30    1
    22    30    31    1
    23    30    33    1
    24    33    34   ar
    25    34    35   ar
    26    35    36   ar
    27    36    37   ar
    28    37    38    1
    29    37    39   ar
    30     2     3    2
    31     3     4    1
    32     4     5    2
    33     5     6    1
    34     6     7    2
    35    15    16    2
    36    16    17    1
    37    17     9    1
    38    23    18    1
    39    17    13    1
    40     6     1    1
    41    39    33   ar
    42    27    28    1
    43    31    32    1
@<TRIPOS>MOLECULE
*****
 39 43 0 0 0
SMALL
GASTEIGER

@<TRIPOS>ATOM
      1 C          63.8558   90.8962   14.6184 C.3     1  UNL1        0.2246
      2 C          63.6440   90.5934   16.0722 C.2     1  UNL1        0.0436
      3 C          64.3954   91.3653   17.1161 C.2     1  UNL1        0.0288
      4 C          65.3584   92.4398   16.7063 C.2     1  UNL1        0.0896
      5 N          65.5702   92.7426   15.2526 N.am    1  UNL1       -0.1770
      6 C          64.8188   91.9707   14.2086 C.2     1  UNL1        0.2627
      7 O          65.0306   92.2735   12.7548 O.2     1  UNL1       -0.2719
      8 C          58.7029   89.2490   12.2062 C.3     1  UNL1        0.0312
      9 C          60.0003   88.7587   11.6350 C.2     1  UNL1        0.0136
     10 C          59.9984   87.8452   10.4452 C.2     1  UNL1        0.0107
     11 C          61.2957   87.3549    9.8740 C.2     1  UNL1        0.0510
     12 C          62.5952   87.7782   10.4925 C.2     1  UNL1        0.0613
     13 C          62.5971   88.6917   11.6823 C.2     1  UNL1        0.2246
     14 N          63.7126   89.2741   12.4986 N.2     1  UNL1       -0.0378
     15 C          63.1045   90.1244   13.5744 C.2     1  UNL1        0.3605
     16 N          61.6133   90.0674   13.4229 N.2     1  UNL1       -0.0547
     17 C          61.2997   89.1819   12.2535 C.3     1  UNL1        0.2976
     18 N          61.2938   86.4414    8.6842 N.pl3   1  UNL1       -0.3046
     19 C          60.0261   86.2138    7.9154 C.3     1  UNL1        0.1081
     20 C          60.0241   85.3003    6.7257 C.3     1  UNL1        0.0939
     21 N          61.2899   84.6144    6.3047 N.3     1  UNL1       -0.2674
     22 C          62.5577   84.8419    7.0735 C.3     1  UNL1        0.0939
     23 C          62.5596   85.7554    8.2633 C.3     1  UNL1        0.1081
     24 C          61.2881   83.7009    5.1150 C.3     1  UNL1        0.1108
     25 C          61.8860   84.1580    3.8175 C.3     1  UNL1        0.2105
     26 F          61.0722   84.1100    2.5584 F       1  UNL1       -0.2328
     27 N          62.6811   89.5189   16.4820 N.pl3   1  UNL1       -0.3329
     28 H          61.7161   89.6376   16.3273 H       1  UNL1        0.1466
     29 C          63.1882   88.2636   17.1276 C.3     1  UNL1        0.1211
     30 C          62.5859   86.9382   16.7662 C.3     1  UNL1        0.1522
     31 O          61.2249   86.5686   17.2771 O.3     1  UNL1       -0.3783
     32 H          60.8765   87.2918   17.8216 H       1  UNL1        0.2109
     33 C          63.3446   85.9825   15.8938 C.ar    1  UNL1        0.0067
     34 C          64.6520   86.3974   15.2867 C.ar    1  UNL1       -0.0018
     35 C          65.4107   85.4417   14.4143 C.ar    1  UNL1        0.0006
     36 C          64.8620   84.0711   14.1491 C.ar    1  UNL1        0.0114
     37 C          63.5546   83.6562   14.7562 C.ar    1  UNL1        0.0574
     38 CL         63.0059   82.2856   14.4910 Cl      1  UNL1       -0.0823
     39 C          62.7959   84.6119   15.6286 C.ar    1  UNL1        0.0095
@<TRIPOS>BOND
     1     8     9    1
     2     9    10    2
     3    10    11    1
     4    11    18    1
     5    18    19    1
     6    19    20    1
     7    20    21    1
     8    21    24    1
     9    24    25    1
    10    25    26    1
    11    21    22    1
    12    22    23    1
    13    11    12    2
    14    12    13    1
    15    13    14    2
    16    14    15    1
    17    15     1    1
    18     1     2    1
    19     2    27    1
    20    27    29    1
    21    29    30    1
    22    30    31    1
    23    30    33    1
    24    33    34   ar
    25    34    35   ar
    26    35    36   ar
    27    36    37   ar
    28    37    38    1
    29    37    39   ar
    30     2     3    2
    31     3     4    1
    32     4     5    2
    33     5     6    1
    34     6     7    2
    35    15    16    2
    36    16    17    1
    37    17     9    1
    38    23    18    1
    39    17    13    1
    40     6     1    1
    41    39    33   ar
    42    27    28    1
    43    31    32    1
@<TRIPOS>MOLECULE
*****
 39 43 0 0 0
SMALL
GASTEIGER

@<TRIPOS>ATOM
      1 C          63.1068   84.4398   11.7764 C.3     1  UNL1        0.2246
      2 C          63.5373   84.5587   13.2084 C.2     1  UNL1        0.0436
      3 C          64.2908   83.4375   13.8605 C.2     1  UNL1        0.0288
      4 C          64.6137   82.1975   13.0808 C.2     1  UNL1        0.0896
      5 N          64.1832   82.0785   11.6489 N.am    1  UNL1       -0.1770
      6 C          63.4297   83.1997   10.9967 C.2     1  UNL1        0.2627
      7 O          62.9992   83.0808    9.5648 O.2     1  UNL1       -0.2719
      8 C          59.3753   89.0191   12.2126 C.3     1  UNL1        0.0312
      9 C          59.9584   88.6381   10.8841 C.2     1  UNL1        0.0136
     10 C          59.5974   89.4185    9.6551 C.2     1  UNL1        0.0107
     11 C          60.1805   89.0375    8.3267 C.2     1  UNL1        0.0510
     12 C          61.1246   87.8761    8.2272 C.2     1  UNL1        0.0613
     13 C          61.4855   87.0956    9.4563 C.2     1  UNL1        0.2246
     14 N          62.3823   85.9117    9.6660 N.2     1  UNL1       -0.0378
     15 C          62.3534   85.5609   11.1242 C.2     1  UNL1        0.3605
     16 N          61.4388   86.5281   11.8156 N.2     1  UNL1       -0.0547
     17 C          60.9024   87.4767   10.7848 C.3     1  UNL1        0.2976
     18 N          59.8195   89.8180    7.0975 N.pl3   1  UNL1       -0.3046
     19 C          60.8993   90.4104    6.2412 C.3     1  UNL1        0.1081
     20 C          60.5384   91.1908    5.0122 C.3     1  UNL1        0.0939
     21 N          59.0977   91.3788    4.6393 N.3     1  UNL1       -0.2674
     22 C          58.0179   90.7865    5.4956 C.3     1  UNL1        0.0939
     23 C          58.3788   90.0060    6.7247 C.3     1  UNL1        0.1081
     24 C          58.7367   92.1592    3.4103 C.3     1  UNL1        0.1108
     25 C          59.8154   92.7734    2.5681 C.3     1  UNL1        0.2105
     26 F          60.2513   94.1863    2.8208 F       1  UNL1       -0.2328
     27 N          63.2145   85.7987   13.9881 N.pl3   1  UNL1       -0.3329
     28 H          62.2863   85.9808   14.2611 H       1  UNL1        0.1466
     29 C          64.3058   86.7614   14.3520 C.3     1  UNL1        0.1211
     30 C          63.9603   88.1193   14.8875 C.3     1  UNL1        0.1522
     31 O          63.4210   88.2614   16.2799 O.3     1  UNL1       -0.3783
     32 H          63.3581   87.3862   16.6932 H       1  UNL1        0.2109
     33 C          64.1541   89.3350   14.0305 C.ar    1  UNL1        0.0067
     34 C          65.0999   90.4154   14.4642 C.ar    1  UNL1       -0.0018
     35 C          65.2937   91.6311   13.6072 C.ar    1  UNL1        0.0006
     36 C          64.5417   91.7665   12.3164 C.ar    1  UNL1        0.0114
     37 C          63.5959   90.6860   11.8827 C.ar    1  UNL1        0.0574
     38 CL         62.8439   90.8214   10.5918 Cl      1  UNL1       -0.0823
     39 C          63.4021   89.4703   12.7396 C.ar    1  UNL1        0.0095
@<TRIPOS>BOND
     1     8     9    1
     2     9    10    2
     3    10    11    1
     4    11    18    1
     5    18    19    1
     6    19    20    1
     7    20    21    1
     8    21    24    1
     9    24    25    1
    10    25    26    1
    11    21    22    1
    12    22    23    1
    13    11    12    2
    14    12    13    1
    15    13    14    2
    16    14    15    1
    17    15     1    1
    18     1     2    1
    19     2    27    1
    20    27    29    1
    21    29    30    1
    22    30    31    1
    23    30    33    1
    24    33    34   ar
    25    34    35   ar
    26    35    36   ar
    27    36    37   ar
    28    37    38    1
    29    37    39   ar
    30     2     3    2
    31     3     4    1
    32     4     5    2
    33     5     6    1
    34     6     7    2
    35    15    16    2
    36    16    17    1
    37    17     9    1
    38    23    18    1
    39    17    13    1
    40     6     1    1
    41    39    33   ar
    42    27    28    1
    43    31    32    1
@<TRIPOS>MOLECULE
*****
 39 43 0 0 0
SMALL
GASTEIGER

@<TRIPOS>ATOM
      1 C          62.9478   84.1377   11.6093 C.3     1  UNL1        0.2246
      2 C          62.8697   83.9035   13.0888 C.2     1  UNL1        0.0436
      3 C          63.5736   82.7284   13.7003 C.2     1  UNL1        0.0288
      4 C          64.3555   81.7876   12.8323 C.2     1  UNL1        0.0896
      5 N          64.4336   82.0218   11.3527 N.am    1  UNL1       -0.1770
      6 C          63.7297   83.1968   10.7413 C.2     1  UNL1        0.2627
      7 O          63.8078   83.4310    9.2617 O.2     1  UNL1       -0.2719
      8 C          59.6081   88.9881   12.2453 C.3     1  UNL1        0.0312
      9 C          60.0798   88.5632   10.8862 C.2     1  UNL1        0.0136
     10 C          59.7060   89.3684    9.6771 C.2     1  UNL1        0.0107
     11 C          60.1776   88.9436    8.3181 C.2     1  UNL1        0.0510
     12 C          61.0230   87.7136    8.1681 C.2     1  UNL1        0.0613
     13 C          61.3967   86.9084    9.3772 C.2     1  UNL1        0.2246
     14 N          62.2118   85.6596    9.5388 N.2     1  UNL1       -0.0378
     15 C          62.2440   85.3127   10.9977 C.2     1  UNL1        0.3605
     16 N          61.4487   86.3470   11.7378 N.2     1  UNL1       -0.0547
     17 C          60.9251   87.3332   10.7363 C.3     1  UNL1        0.2976
     18 N          59.8039   89.7489    7.1089 N.pl3   1  UNL1       -0.3046
     19 C          58.3589   89.9672    6.7705 C.3     1  UNL1        0.1081
     20 C          57.9852   90.7723    5.5613 C.3     1  UNL1        0.0939
     21 N          59.0564   91.3592    4.6907 N.3     1  UNL1       -0.2674
     22 C          60.5013   91.1409    5.0291 C.3     1  UNL1        0.0939
     23 C          60.8751   90.3357    6.2382 C.3     1  UNL1        0.1081
     24 C          58.6827   92.1644    3.4815 C.3     1  UNL1        0.1108
     25 C          59.7540   92.7458    2.6072 C.3     1  UNL1        0.2105
     26 F          60.2460   94.1416    2.8513 F       1  UNL1       -0.2328
     27 N          62.0879   84.8442   13.9569 N.pl3   1  UNL1       -0.3329
     28 H          61.2393   85.2234   13.6322 H       1  UNL1        0.1466
     29 C          62.5988   85.2073   15.3196 C.3     1  UNL1        0.1211
     30 C          63.8713   85.9889   15.4598 C.3     1  UNL1        0.1522
     31 O          65.1899   85.2748   15.4965 O.3     1  UNL1       -0.3783
     32 H          65.0424   84.3192   15.4186 H       1  UNL1        0.2109
     33 C          63.8253   87.4846   15.5633 C.ar    1  UNL1        0.0067
     34 C          63.2022   88.1346   16.7630 C.ar    1  UNL1       -0.0018
     35 C          63.1562   89.6303   16.8665 C.ar    1  UNL1        0.0006
     36 C          63.7332   90.4761   15.7703 C.ar    1  UNL1        0.0114
     37 C          64.3563   89.8261   14.5706 C.ar    1  UNL1        0.0574
     38 CL         64.9334   90.6719   13.4744 Cl      1  UNL1       -0.0823
     39 C          64.4024   88.3304   14.4671 C.ar    1  UNL1        0.0095
@<TRIPOS>BOND
     1     8     9    1
     2     9    10    2
     3    10    11    1
     4    11    18    1
     5    18    19    1
     6    19    20    1
     7    20    21    1
     8    21    24    1
     9    24    25    1
    10    25    26    1
    11    21    22    1
    12    22    23    1
    13    11    12    2
    14    12    13    1
    15    13    14    2
    16    14    15    1
    17    15     1    1
    18     1     2    1
    19     2    27    1
    20    27    29    1
    21    29    30    1
    22    30    31    1
    23    30    33    1
    24    33    34   ar
    25    34    35   ar
    26    35    36   ar
    27    36    37   ar
    28    37    38    1
    29    37    39   ar
    30     2     3    2
    31     3     4    1
    32     4     5    2
    33     5     6    1
    34     6     7    2
    35    15    16    2
    36    16    17    1
    37    17     9    1
    38    23    18    1
    39    17    13    1
    40     6     1    1
    41    39    33   ar
    42    27    28    1
    43    31    32    1
