@<TRIPOS>MOLECULE
*****
 31 33 0 0 0
SMALL
GASTEIGER

@<TRIPOS>ATOM
      1 C          63.4913   89.1126   15.8565 C.ar    1  UNL1        0.1647
      2 C          64.1505   88.6306   14.5982 C.ar    1  UNL1        0.1571
      3 N          64.2749   87.1595   14.3328 N.ar    1  UNL1       -0.1616
      4 N          63.7402   86.1705   15.3258 N.ar    1  UNL1       -0.2084
      5 C          63.0811   86.6525   16.5840 C.ar    1  UNL1        0.2799
      6 O          62.5464   85.6635   17.5769 O.2     1  UNL1       -0.2654
      7 C          62.9567   88.1236   16.8494 C.ar    1  UNL1        0.1007
      8 O          63.3669   90.5837   16.1218 O.3     1  UNL1       -0.4672
      9 C          64.5937   91.4461   16.1559 C.3     1  UNL1        0.2509
     10 C          66.8307   92.3281   12.3523 C.ar    1  UNL1        0.1578
     11 C          67.5850   92.0299   13.6140 C.ar    1  UNL1        0.0398
     12 C          66.8393   91.7359   14.8819 C.ar    1  UNL1        0.0216
     13 C          65.3394   91.7401   14.8881 C.ar    1  UNL1        0.1029
     14 N          64.5851   92.0382   13.6263 N.ar    1  UNL1       -0.2413
     15 C          65.3307   92.3322   12.3584 C.ar    1  UNL1        0.1353
     16 C          66.8983   93.3625    9.9700 C.3     1  UNL1        0.2525
     17 O          67.5763   92.6221   11.0844 O.3     1  UNL1       -0.4699
     18 C          63.8647   84.6994   15.0605 C.3     1  UNL1        0.1992
     19 C          62.9197   84.0262   14.1097 C.2     1  UNL1        0.1974
     20 O          61.9733   82.9758   14.6107 O.2     1  UNL1       -0.2892
     21 C          62.9212   84.4034   12.6579 C.ar    1  UNL1        0.0328
     22 C          62.2265   85.6541   12.2073 C.ar    1  UNL1        0.0023
     23 C          62.2280   86.0314   10.7555 C.ar    1  UNL1       -0.0028
     24 C          62.9242   85.1579    9.7543 C.ar    1  UNL1       -0.0065
     25 C          63.6189   83.9071   10.2049 C.ar    1  UNL1       -0.0071
     26 C          63.6174   83.5299   11.6567 C.ar    1  UNL1       -0.0193
     27 C          64.3120   82.2791   12.1074 C.3     1  UNL1        0.0311
     28 C          62.9256   85.5351    8.3026 C.3     1  UNL1        0.0992
     29 N          61.6976   85.3162    7.4695 N.3     1  UNL1       -0.2665
     30 C          61.7461   84.3891    6.2913 C.3     1  UNL1        0.0899
     31 C          60.4211   86.0243    7.8147 C.3     1  UNL1        0.0899
@<TRIPOS>BOND
     1    16    17    1
     2    17    10    1
     3    10    11   ar
     4    11    12   ar
     5    12    13   ar
     6    13     9    1
     7     9     8    1
     8     8     1    1
     9     1     2   ar
    10     2     3   ar
    11     3     4   ar
    12     4    18    1
    13    18    19    1
    14    19    20    2
    15    19    21    1
    16    21    22   ar
    17    22    23   ar
    18    23    24   ar
    19    24    28    1
    20    28    29    1
    21    29    30    1
    22    29    31    1
    23    24    25   ar
    24    25    26   ar
    25    26    27    1
    26     4     5   ar
    27     5     6    2
    28     5     7   ar
    29    13    14   ar
    30    14    15   ar
    31    15    10   ar
    32     7     1   ar
    33    26    21   ar
@<TRIPOS>MOLECULE
*****
 31 33 0 0 0
SMALL
GASTEIGER

@<TRIPOS>ATOM
      1 C          62.7725   90.8004   11.6843 C.ar    1  UNL1        0.1647
      2 C          63.1106   90.4023   10.2782 C.ar    1  UNL1        0.1571
      3 N          62.2210   89.4516    9.5334 N.ar    1  UNL1       -0.1616
      4 N          60.9932   88.8990   10.1948 N.ar    1  UNL1       -0.2084
      5 C          60.6551   89.2972   11.6009 C.ar    1  UNL1        0.2799
      6 O          59.4274   88.7447   12.2622 O.2     1  UNL1       -0.2654
      7 C          61.5447   90.2479   12.3456 C.ar    1  UNL1        0.1007
      8 O          63.6621   91.7512   12.4291 O.3     1  UNL1       -0.4672
      9 C          64.6500   91.2270   13.4286 C.3     1  UNL1        0.2509
     10 C          63.3078   88.3639   16.6304 C.ar    1  UNL1        0.1578
     11 C          63.9322   87.8413   15.3707 C.ar    1  UNL1        0.0398
     12 C          64.3796   88.7956   14.3034 C.ar    1  UNL1        0.0216
     13 C          64.2026   90.2726   14.4959 C.ar    1  UNL1        0.1029
     14 N          63.5783   90.7953   15.7556 N.ar    1  UNL1       -0.2413
     15 C          63.1309   89.8409   16.8229 C.ar    1  UNL1        0.1353
     16 C          62.5048   85.9971   17.3396 C.3     1  UNL1        0.2525
     17 O          62.8604   87.4096   17.6977 O.3     1  UNL1       -0.4699
     18 C          60.1035   87.9483    9.4500 C.3     1  UNL1        0.1992
     19 C          60.6593   86.6594    8.9209 C.2     1  UNL1        0.1974
     20 O          60.2772   86.1843    7.5504 O.2     1  UNL1       -0.2892
     21 C          61.5972   85.8456    9.7624 C.ar    1  UNL1        0.0328
     22 C          61.4564   85.8450   11.2558 C.ar    1  UNL1        0.0023
     23 C          62.3943   85.0312   12.0972 C.ar    1  UNL1       -0.0028
     24 C          63.4729   84.2179   11.4454 C.ar    1  UNL1       -0.0065
     25 C          63.6138   84.2184    9.9520 C.ar    1  UNL1       -0.0071
     26 C          62.6759   85.0322    9.1105 C.ar    1  UNL1       -0.0193
     27 C          62.8167   85.0328    7.6171 C.3     1  UNL1        0.0311
     28 C          64.4108   83.4041   12.2869 C.3     1  UNL1        0.0992
     29 N          63.8862   82.6295   13.4594 N.3     1  UNL1       -0.2665
     30 C          63.3099   81.2597   13.2561 C.3     1  UNL1        0.0899
     31 C          63.9380   83.2248   14.8353 C.3     1  UNL1        0.0899
@<TRIPOS>BOND
     1    16    17    1
     2    17    10    1
     3    10    11   ar
     4    11    12   ar
     5    12    13   ar
     6    13     9    1
     7     9     8    1
     8     8     1    1
     9     1     2   ar
    10     2     3   ar
    11     3     4   ar
    12     4    18    1
    13    18    19    1
    14    19    20    2
    15    19    21    1
    16    21    22   ar
    17    22    23   ar
    18    23    24   ar
    19    24    28    1
    20    28    29    1
    21    29    30    1
    22    29    31    1
    23    24    25   ar
    24    25    26   ar
    25    26    27    1
    26     4     5   ar
    27     5     6    2
    28     5     7   ar
    29    13    14   ar
    30    14    15   ar
    31    15    10   ar
    32     7     1   ar
    33    26    21   ar
@<TRIPOS>MOLECULE
*****
 31 33 0 0 0
SMALL
GASTEIGER

@<TRIPOS>ATOM
      1 C          63.2611   86.6430   16.4851 C.ar    1  UNL1        0.1647
      2 C          62.2406   85.5522   16.6217 C.ar    1  UNL1        0.1571
      3 N          62.4390   84.2462   15.9109 N.ar    1  UNL1       -0.1616
      4 N          63.6580   84.0312   15.0636 N.ar    1  UNL1       -0.2084
      5 C          64.6785   85.1220   14.9271 C.ar    1  UNL1        0.2799
      6 O          65.8974   84.9069   14.0798 O.2     1  UNL1       -0.2654
      7 C          64.4800   86.4279   15.6378 C.ar    1  UNL1        0.1007
      8 O          63.0627   87.9489   17.1959 O.3     1  UNL1       -0.4672
      9 C          62.6421   89.1656   16.4259 C.3     1  UNL1        0.2509
     10 C          65.7212   92.1728   15.1123 C.ar    1  UNL1        0.1578
     11 C          65.4923   90.9311   14.3025 C.ar    1  UNL1        0.0398
     12 C          64.4660   89.9287   14.7404 C.ar    1  UNL1        0.0216
     13 C          63.6685   90.1680   15.9880 C.ar    1  UNL1        0.1029
     14 N          63.8973   91.4096   16.7978 N.ar    1  UNL1       -0.2413
     15 C          64.9237   92.4120   16.3599 C.ar    1  UNL1        0.1353
     16 C          67.9137   93.4917   15.5631 C.3     1  UNL1        0.2525
     17 O          66.7476   93.1752   14.6744 O.3     1  UNL1       -0.4699
     18 C          63.8564   82.7253   14.3528 C.3     1  UNL1        0.1992
     19 C          63.0740   82.4216   13.1095 C.2     1  UNL1        0.1974
     20 O          62.5019   81.0511   12.8994 O.2     1  UNL1       -0.2892
     21 C          62.8638   83.4886   12.0763 C.ar    1  UNL1        0.0328
     22 C          62.0706   84.7155   12.4159 C.ar    1  UNL1        0.0023
     23 C          61.8603   85.7825   11.3828 C.ar    1  UNL1       -0.0028
     24 C          62.4433   85.6225   10.0101 C.ar    1  UNL1       -0.0065
     25 C          63.2366   84.3955    9.6704 C.ar    1  UNL1       -0.0071
     26 C          63.4469   83.3286   10.7035 C.ar    1  UNL1       -0.0193
     27 C          64.2401   82.1016   10.3639 C.3     1  UNL1        0.0311
     28 C          62.2331   86.6895    8.9769 C.3     1  UNL1        0.0992
     29 N          60.8510   87.2009    8.6974 N.3     1  UNL1       -0.2665
     30 C          60.4151   88.5251    9.2511 C.3     1  UNL1        0.0899
     31 C          59.9047   86.3882    7.8643 C.3     1  UNL1        0.0899
@<TRIPOS>BOND
     1    16    17    1
     2    17    10    1
     3    10    11   ar
     4    11    12   ar
     5    12    13   ar
     6    13     9    1
     7     9     8    1
     8     8     1    1
     9     1     2   ar
    10     2     3   ar
    11     3     4   ar
    12     4    18    1
    13    18    19    1
    14    19    20    2
    15    19    21    1
    16    21    22   ar
    17    22    23   ar
    18    23    24   ar
    19    24    28    1
    20    28    29    1
    21    29    30    1
    22    29    31    1
    23    24    25   ar
    24    25    26   ar
    25    26    27    1
    26     4     5   ar
    27     5     6    2
    28     5     7   ar
    29    13    14   ar
    30    14    15   ar
    31    15    10   ar
    32     7     1   ar
    33    26    21   ar
@<TRIPOS>MOLECULE
*****
 31 33 0 0 0
SMALL
GASTEIGER

@<TRIPOS>ATOM
      1 C          63.7028   83.9356   14.8048 C.ar    1  UNL1        0.1647
      2 C          64.8288   84.9093   14.6200 C.ar    1  UNL1        0.1571
      3 N          64.7707   86.2565   15.2769 N.ar    1  UNL1       -0.1616
      4 N          63.5866   86.6301   16.1186 N.ar    1  UNL1       -0.2084
      5 C          62.4606   85.6565   16.3033 C.ar    1  UNL1        0.2799
      6 O          61.2766   86.0300   17.1449 O.2     1  UNL1       -0.2654
      7 C          62.5187   84.3092   15.6464 C.ar    1  UNL1        0.1007
      8 O          63.7609   82.5883   14.1479 O.3     1  UNL1       -0.4672
      9 C          64.1774   82.4716   12.7116 C.3     1  UNL1        0.2509
     10 C          62.4642   85.2753    9.6369 C.ar    1  UNL1        0.1578
     11 C          63.5556   84.3198    9.2551 C.ar    1  UNL1        0.0398
     12 C          64.1267   83.3852   10.2801 C.ar    1  UNL1        0.0216
     13 C          63.6064   83.4061   11.6867 C.ar    1  UNL1        0.1029
     14 N          62.5149   84.3616   12.0685 N.ar    1  UNL1       -0.2413
     15 C          61.9438   85.2962   11.0436 C.ar    1  UNL1        0.1353
     16 C          60.4482   86.6066    8.6812 C.3     1  UNL1        0.2525
     17 O          61.8931   86.2098    8.6120 O.3     1  UNL1       -0.4699
     18 C          63.5284   87.9774   16.7755 C.3     1  UNL1        0.1992
     19 C          62.9267   89.1420   16.0463 C.2     1  UNL1        0.1974
     20 O          61.4402   89.3429   16.0510 O.2     1  UNL1       -0.2892
     21 C          63.8114   90.1056   15.3124 C.ar    1  UNL1        0.0328
     22 C          64.4496   91.2469   16.0474 C.ar    1  UNL1        0.0023
     23 C          65.3343   92.2105   15.3135 C.ar    1  UNL1       -0.0028
     24 C          65.5809   92.0330   13.8446 C.ar    1  UNL1       -0.0065
     25 C          64.9427   90.8917   13.1095 C.ar    1  UNL1       -0.0071
     26 C          64.0580   89.9280   13.8434 C.ar    1  UNL1       -0.0193
     27 C          63.4198   88.7867   13.1085 C.3     1  UNL1        0.0311
     28 C          66.4656   92.9966   13.1107 C.3     1  UNL1        0.0992
     29 N          67.4382   92.4912   12.0867 N.3     1  UNL1       -0.2665
     30 C          67.2061   92.7682   10.6309 C.3     1  UNL1        0.0899
     31 C          68.6431   91.7089   12.5185 C.3     1  UNL1        0.0899
@<TRIPOS>BOND
     1    16    17    1
     2    17    10    1
     3    10    11   ar
     4    11    12   ar
     5    12    13   ar
     6    13     9    1
     7     9     8    1
     8     8     1    1
     9     1     2   ar
    10     2     3   ar
    11     3     4   ar
    12     4    18    1
    13    18    19    1
    14    19    20    2
    15    19    21    1
    16    21    22   ar
    17    22    23   ar
    18    23    24   ar
    19    24    28    1
    20    28    29    1
    21    29    30    1
    22    29    31    1
    23    24    25   ar
    24    25    26   ar
    25    26    27    1
    26     4     5   ar
    27     5     6    2
    28     5     7   ar
    29    13    14   ar
    30    14    15   ar
    31    15    10   ar
    32     7     1   ar
    33    26    21   ar
@<TRIPOS>MOLECULE
*****
 31 33 0 0 0
SMALL
GASTEIGER

@<TRIPOS>ATOM
      1 C          64.4218   91.0433   12.8775 C.ar    1  UNL1        0.1647
      2 C          63.9093   89.8761   13.6683 C.ar    1  UNL1        0.1571
      3 N          62.8380   88.9954   13.0967 N.ar    1  UNL1       -0.1616
      4 N          62.2792   89.2819   11.7345 N.ar    1  UNL1       -0.2084
      5 C          62.7917   90.4489   10.9438 C.ar    1  UNL1        0.2799
      6 O          62.2328   90.7353    9.5816 O.2     1  UNL1       -0.2654
      7 C          63.8630   91.3296   11.5153 C.ar    1  UNL1        0.1007
      8 O          65.4931   91.9240   13.4490 O.3     1  UNL1       -0.4672
      9 C          66.8352   92.0006   12.7835 C.3     1  UNL1        0.2509
     10 C          67.4435   94.7231    9.2525 C.ar    1  UNL1        0.1578
     11 C          67.8801   93.2899    9.1786 C.ar    1  UNL1        0.0398
     12 C          67.6773   92.3824   10.3556 C.ar    1  UNL1        0.0216
     13 C          67.0380   92.9081   11.6065 C.ar    1  UNL1        0.1029
     14 N          66.6015   94.3413   11.6805 N.ar    1  UNL1       -0.2413
     15 C          66.8042   95.2487   10.5034 C.ar    1  UNL1        0.1353
     16 C          66.7916   96.8526    7.9146 C.3     1  UNL1        0.2525
     17 O          67.6463   95.6305    8.0755 O.3     1  UNL1       -0.4699
     18 C          61.2078   88.4012   11.1629 C.3     1  UNL1        0.1992
     19 C          61.5588   87.3587   10.1431 C.2     1  UNL1        0.1974
     20 O          61.2853   87.6092    8.6897 O.2     1  UNL1       -0.2892
     21 C          62.1834   86.0656   10.5766 C.ar    1  UNL1        0.0328
     22 C          62.1209   85.6480   12.0159 C.ar    1  UNL1        0.0023
     23 C          62.7454   84.3550   12.4495 C.ar    1  UNL1       -0.0028
     24 C          63.4325   83.4795   11.4438 C.ar    1  UNL1       -0.0065
     25 C          63.4950   83.8971   10.0044 C.ar    1  UNL1       -0.0071
     26 C          62.8704   85.1902    9.5708 C.ar    1  UNL1       -0.0193
     27 C          62.9329   85.6078    8.1315 C.3     1  UNL1        0.0311
     28 C          64.0570   82.1865   11.8774 C.3     1  UNL1        0.0992
     29 N          63.4450   81.3958   12.9954 N.3     1  UNL1       -0.2665
     30 C          63.6460   81.8283   14.4176 C.3     1  UNL1        0.0899
     31 C          62.6319   80.1724   12.6914 C.3     1  UNL1        0.0899
@<TRIPOS>BOND
     1    16    17    1
     2    17    10    1
     3    10    11   ar
     4    11    12   ar
     5    12    13   ar
     6    13     9    1
     7     9     8    1
     8     8     1    1
     9     1     2   ar
    10     2     3   ar
    11     3     4   ar
    12     4    18    1
    13    18    19    1
    14    19    20    2
    15    19    21    1
    16    21    22   ar
    17    22    23   ar
    18    23    24   ar
    19    24    28    1
    20    28    29    1
    21    29    30    1
    22    29    31    1
    23    24    25   ar
    24    25    26   ar
    25    26    27    1
    26     4     5   ar
    27     5     6    2
    28     5     7   ar
    29    13    14   ar
    30    14    15   ar
    31    15    10   ar
    32     7     1   ar
    33    26    21   ar
@<TRIPOS>MOLECULE
*****
 31 33 0 0 0
SMALL
GASTEIGER

@<TRIPOS>ATOM
      1 C          62.7137   86.2457   12.0015 C.ar    1  UNL1        0.1647
      2 C          62.5632   87.7254   11.8067 C.ar    1  UNL1        0.1571
      3 N          63.2039   88.6779   12.7723 N.ar    1  UNL1       -0.1616
      4 N          63.9950   88.1506   13.9326 N.ar    1  UNL1       -0.2084
      5 C          64.1454   86.6709   14.1273 C.ar    1  UNL1        0.2799
      6 O          64.9365   86.1438   15.2875 O.2     1  UNL1       -0.2654
      7 C          63.5048   85.7185   13.1617 C.ar    1  UNL1        0.1007
      8 O          62.0730   85.2932   11.0359 O.3     1  UNL1       -0.4672
      9 C          62.1845   85.5337    9.5595 C.3     1  UNL1        0.2509
     10 C          59.3567   88.3815    7.5240 C.ar    1  UNL1        0.1578
     11 C          59.3221   86.9205    7.1861 C.ar    1  UNL1        0.0398
     12 C          60.2647   85.9713    7.8646 C.ar    1  UNL1        0.0216
     13 C          61.2419   86.4830    8.8810 C.ar    1  UNL1        0.1029
     14 N          61.2764   87.9440    9.2189 N.ar    1  UNL1       -0.2413
     15 C          60.3338   88.8933    8.5404 C.ar    1  UNL1        0.1353
     16 C          58.9269   90.2809    5.8041 C.3     1  UNL1        0.2525
     17 O          58.4141   89.3308    6.8454 O.3     1  UNL1       -0.4699
     18 C          64.6357   89.1031   14.8982 C.3     1  UNL1        0.1992
     19 C          64.4468   90.5817   14.7301 C.2     1  UNL1        0.1974
     20 O          63.6089   91.3469   15.7111 O.2     1  UNL1       -0.2892
     21 C          65.0957   91.2949   13.5811 C.ar    1  UNL1        0.0328
     22 C          64.3306   91.5227   12.3113 C.ar    1  UNL1        0.0023
     23 C          64.9795   92.2359   11.1623 C.ar    1  UNL1       -0.0028
     24 C          66.3936   92.7213   11.2831 C.ar    1  UNL1       -0.0065
     25 C          67.1589   92.4935   12.5531 C.ar    1  UNL1       -0.0071
     26 C          66.5099   91.7803   13.7021 C.ar    1  UNL1       -0.0193
     27 C          67.2751   91.5525   14.9719 C.3     1  UNL1        0.0311
     28 C          67.0426   93.4345   10.1341 C.3     1  UNL1        0.0992
     29 N          66.9254   94.9251   10.0141 N.3     1  UNL1       -0.2665
     30 C          67.4822   95.6267    8.8109 C.3     1  UNL1        0.0899
     31 C          66.2513   95.7141   11.0972 C.3     1  UNL1        0.0899
@<TRIPOS>BOND
     1    16    17    1
     2    17    10    1
     3    10    11   ar
     4    11    12   ar
     5    12    13   ar
     6    13     9    1
     7     9     8    1
     8     8     1    1
     9     1     2   ar
    10     2     3   ar
    11     3     4   ar
    12     4    18    1
    13    18    19    1
    14    19    20    2
    15    19    21    1
    16    21    22   ar
    17    22    23   ar
    18    23    24   ar
    19    24    28    1
    20    28    29    1
    21    29    30    1
    22    29    31    1
    23    24    25   ar
    24    25    26   ar
    25    26    27    1
    26     4     5   ar
    27     5     6    2
    28     5     7   ar
    29    13    14   ar
    30    14    15   ar
    31    15    10   ar
    32     7     1   ar
    33    26    21   ar
@<TRIPOS>MOLECULE
*****
 31 33 0 0 0
SMALL
GASTEIGER

@<TRIPOS>ATOM
      1 C          62.9612   83.7978   11.4238 C.ar    1  UNL1        0.1647
      2 C          62.2897   84.8419   12.2660 C.ar    1  UNL1        0.1571
      3 N          61.9707   86.1858   11.6813 N.ar    1  UNL1       -0.1616
      4 N          62.3231   86.4858   10.2544 N.ar    1  UNL1       -0.2084
      5 C          62.9945   85.4418    9.4123 C.ar    1  UNL1        0.2799
      6 O          63.3469   85.7417    7.9855 O.2     1  UNL1       -0.2654
      7 C          63.3136   84.0978    9.9970 C.ar    1  UNL1        0.1007
      8 O          63.2803   82.4538   12.0085 O.3     1  UNL1       -0.4672
      9 C          63.9503   82.3582   13.3472 C.3     1  UNL1        0.2509
     10 C          63.4081   85.6433   16.3744 C.ar    1  UNL1        0.1578
     11 C          64.5967   85.6552   15.4595 C.ar    1  UNL1        0.0398
     12 C          64.7774   84.5601   14.4504 C.ar    1  UNL1        0.0216
     13 C          63.7695   83.4532   14.3562 C.ar    1  UNL1        0.1029
     14 N          62.5809   83.4413   15.2711 N.ar    1  UNL1       -0.2413
     15 C          62.4002   84.5364   16.2802 C.ar    1  UNL1        0.1353
     16 C          63.0365   88.1545   16.9275 C.3     1  UNL1        0.2525
     17 O          63.2273   86.7383   17.3835 O.3     1  UNL1       -0.4699
     18 C          62.0040   87.8298    9.6697 C.3     1  UNL1        0.1992
     19 C          61.6326   88.9705   10.5702 C.2     1  UNL1        0.1974
     20 O          60.2400   89.5269   10.5405 O.2     1  UNL1       -0.2892
     21 C          62.6540   89.5547   11.5006 C.ar    1  UNL1        0.0328
     22 C          62.9850   88.8554   12.7856 C.ar    1  UNL1        0.0023
     23 C          64.0063   89.4397   13.7159 C.ar    1  UNL1       -0.0028
     24 C          64.6967   90.7232   13.3612 C.ar    1  UNL1       -0.0065
     25 C          64.3657   91.4226   12.0761 C.ar    1  UNL1       -0.0071
     26 C          63.3443   90.8384   11.1458 C.ar    1  UNL1       -0.0193
     27 C          63.0133   91.5377    9.8608 C.3     1  UNL1        0.0311
     28 C          65.7180   91.3075   14.2915 C.3     1  UNL1        0.0992
     29 N          66.7395   92.2750   13.7717 N.3     1  UNL1       -0.2665
     30 C          66.5239   93.7509   13.9308 C.3     1  UNL1        0.0899
     31 C          67.9767   91.7667   13.0927 C.3     1  UNL1        0.0899
@<TRIPOS>BOND
     1    16    17    1
     2    17    10    1
     3    10    11   ar
     4    11    12   ar
     5    12    13   ar
     6    13     9    1
     7     9     8    1
     8     8     1    1
     9     1     2   ar
    10     2     3   ar
    11     3     4   ar
    12     4    18    1
    13    18    19    1
    14    19    20    2
    15    19    21    1
    16    21    22   ar
    17    22    23   ar
    18    23    24   ar
    19    24    28    1
    20    28    29    1
    21    29    30    1
    22    29    31    1
    23    24    25   ar
    24    25    26   ar
    25    26    27    1
    26     4     5   ar
    27     5     6    2
    28     5     7   ar
    29    13    14   ar
    30    14    15   ar
    31    15    10   ar
    32     7     1   ar
    33    26    21   ar
@<TRIPOS>MOLECULE
*****
 31 33 0 0 0
SMALL
GASTEIGER

@<TRIPOS>ATOM
      1 C          63.2931   84.3258   10.7096 C.ar    1  UNL1        0.1647
      2 C          62.3544   85.0600   11.6206 C.ar    1  UNL1        0.1571
      3 N          61.2919   85.9485   11.0447 N.ar    1  UNL1       -0.1616
      4 N          61.1681   86.1028    9.5577 N.ar    1  UNL1       -0.2084
      5 C          62.1068   85.3686    8.6468 C.ar    1  UNL1        0.2799
      6 O          61.9830   85.5229    7.1599 O.2     1  UNL1       -0.2654
      7 C          63.1693   84.4801    9.2228 C.ar    1  UNL1        0.1007
      8 O          64.3556   83.4374   11.2856 O.3     1  UNL1       -0.4672
      9 C          64.1479   82.7892   12.6222 C.3     1  UNL1        0.2509
     10 C          63.3358   85.3244   16.2503 C.ar    1  UNL1        0.1578
     11 C          64.6065   85.5096   15.4752 C.ar    1  UNL1        0.0398
     12 C          64.8772   84.6645   14.2658 C.ar    1  UNL1        0.0216
     13 C          63.8772   83.6343   13.8316 C.ar    1  UNL1        0.1029
     14 N          62.6064   83.4491   14.6068 N.ar    1  UNL1       -0.2413
     15 C          62.3357   84.2942   15.8161 C.ar    1  UNL1        0.1353
     16 C          62.8728   87.6498   17.3125 C.3     1  UNL1        0.2525
     17 O          63.0651   86.1695   17.4597 O.3     1  UNL1       -0.4699
     18 C          60.1056   86.9912    8.9817 C.3     1  UNL1        0.1992
     19 C          60.3136   88.4761    8.9353 C.2     1  UNL1        0.1974
     20 O          59.6736   89.2894    7.8495 O.2     1  UNL1       -0.2892
     21 C          61.1616   89.1475    9.9746 C.ar    1  UNL1        0.0328
     22 C          62.5408   89.6222    9.6250 C.ar    1  UNL1        0.0023
     23 C          63.3888   90.2936   10.6643 C.ar    1  UNL1       -0.0028
     24 C          62.8575   90.4903   12.0532 C.ar    1  UNL1       -0.0065
     25 C          61.4782   90.0155   12.4028 C.ar    1  UNL1       -0.0071
     26 C          60.6302   89.3441   11.3635 C.ar    1  UNL1       -0.0193
     27 C          59.2510   88.8694   11.7131 C.3     1  UNL1        0.0311
     28 C          63.7055   91.1617   13.0925 C.3     1  UNL1        0.0992
     29 N          64.0811   90.4254   14.3442 N.3     1  UNL1       -0.2665
     30 C          64.3913   88.9589   14.2872 C.3     1  UNL1        0.0899
     31 C          64.1465   91.1555   15.6529 C.3     1  UNL1        0.0899
@<TRIPOS>BOND
     1    16    17    1
     2    17    10    1
     3    10    11   ar
     4    11    12   ar
     5    12    13   ar
     6    13     9    1
     7     9     8    1
     8     8     1    1
     9     1     2   ar
    10     2     3   ar
    11     3     4   ar
    12     4    18    1
    13    18    19    1
    14    19    20    2
    15    19    21    1
    16    21    22   ar
    17    22    23   ar
    18    23    24   ar
    19    24    28    1
    20    28    29    1
    21    29    30    1
    22    29    31    1
    23    24    25   ar
    24    25    26   ar
    25    26    27    1
    26     4     5   ar
    27     5     6    2
    28     5     7   ar
    29    13    14   ar
    30    14    15   ar
    31    15    10   ar
    32     7     1   ar
    33    26    21   ar
@<TRIPOS>MOLECULE
*****
 31 33 0 0 0
SMALL
GASTEIGER

@<TRIPOS>ATOM
      1 C          63.1551   84.4465   11.0650 C.ar    1  UNL1        0.1647
      2 C          63.1090   85.4623   12.1678 C.ar    1  UNL1        0.1571
      3 N          62.5481   86.8286   11.9061 N.ar    1  UNL1       -0.1616
      4 N          62.0333   87.1792   10.5415 N.ar    1  UNL1       -0.2084
      5 C          62.0794   86.1636    9.4387 C.ar    1  UNL1        0.2799
      6 O          61.5646   86.5142    8.0742 O.2     1  UNL1       -0.2654
      7 C          62.6403   84.7972    9.7004 C.ar    1  UNL1        0.1007
      8 O          63.7159   83.0802   11.3267 O.3     1  UNL1       -0.4672
      9 C          64.2797   82.7467   12.6761 C.3     1  UNL1        0.2509
     10 C          62.8795   84.9907   16.3167 C.ar    1  UNL1        0.1578
     11 C          64.2316   85.2764   15.7336 C.ar    1  UNL1        0.0398
     12 C          64.6984   84.5284   14.5201 C.ar    1  UNL1        0.0216
     13 C          63.8129   83.4947   13.8896 C.ar    1  UNL1        0.1029
     14 N          62.4608   83.2091   14.4727 N.ar    1  UNL1       -0.2413
     15 C          61.9941   83.9571   15.6862 C.ar    1  UNL1        0.1353
     16 C          62.7894   87.1789   17.7144 C.3     1  UNL1        0.2525
     17 O          62.4128   85.7388   17.5302 O.3     1  UNL1       -0.4699
     18 C          61.4724   88.5456   10.2798 C.3     1  UNL1        0.1992
     19 C          61.5508   89.6042   11.3397 C.2     1  UNL1        0.1974
     20 O          60.4255   89.7714   12.3172 O.2     1  UNL1       -0.2892
     21 C          62.7545   90.4954   11.4220 C.ar    1  UNL1        0.0328
     22 C          63.1778   91.2964   10.2266 C.ar    1  UNL1        0.0023
     23 C          64.3815   92.1876   10.3089 C.ar    1  UNL1       -0.0028
     24 C          65.1619   92.2779   11.5867 C.ar    1  UNL1       -0.0065
     25 C          64.7386   91.4769   12.7823 C.ar    1  UNL1       -0.0071
     26 C          63.5349   90.5856   12.6999 C.ar    1  UNL1       -0.0193
     27 C          63.1116   89.7846   13.8954 C.3     1  UNL1        0.0311
     28 C          66.3656   93.1691   11.6690 C.3     1  UNL1        0.0992
     29 N          67.2567   93.3383   10.4743 N.3     1  UNL1       -0.2665
     30 C          68.1305   92.2053   10.0240 C.3     1  UNL1        0.0899
     31 C          67.2739   94.6405    9.7299 C.3     1  UNL1        0.0899
@<TRIPOS>BOND
     1    16    17    1
     2    17    10    1
     3    10    11   ar
     4    11    12   ar
     5    12    13   ar
     6    13     9    1
     7     9     8    1
     8     8     1    1
     9     1     2   ar
    10     2     3   ar
    11     3     4   ar
    12     4    18    1
    13    18    19    1
    14    19    20    2
    15    19    21    1
    16    21    22   ar
    17    22    23   ar
    18    23    24   ar
    19    24    28    1
    20    28    29    1
    21    29    30    1
    22    29    31    1
    23    24    25   ar
    24    25    26   ar
    25    26    27    1
    26     4     5   ar
    27     5     6    2
    28     5     7   ar
    29    13    14   ar
    30    14    15   ar
    31    15    10   ar
    32     7     1   ar
    33    26    21   ar
