@<TRIPOS>MOLECULE
*****
 20 23 0 0 0
SMALL
GASTEIGER

@<TRIPOS>ATOM
      1 C          63.1072   85.1348    8.5814 C.3     1  UNL1        0.1152
      2 N          62.7771   84.9002   10.0257 N.am    1  UNL1       -0.2732
      3 C          63.5625   83.9004   10.8217 C.2     1  UNL1        0.2250
      4 O          64.6779   83.1352   10.1734 O.2     1  UNL1       -0.2749
      5 C          63.2324   83.6657   12.2660 C.3     1  UNL1        0.0691
      6 C          62.7968   82.3055   12.7244 C.3     1  UNL1        0.0086
      7 C          62.4668   82.0709   14.1687 C.3     1  UNL1        0.0005
      8 C          62.5723   83.1965   15.1545 C.3     1  UNL1        0.0000
      9 C          63.0078   84.5566   14.6962 C.3     1  UNL1        0.0005
     10 C          63.0037   82.6151   12.0430 C.3     1  UNL1        0.0000
     11 C          62.6913   81.1800   11.7385 C.3     1  UNL1        0.0005
     12 C          62.3613   80.9453   13.1828 C.3     1  UNL1        0.0000
     13 C          63.1269   82.5401   11.2801 C.3     1  UNL1        0.0086
     14 C          63.3379   84.7913   13.2519 C.3     1  UNL1        0.0086
     15 C          61.6617   85.6653   10.6740 C.3     1  UNL1        0.1266
     16 C          61.3935   87.0854   10.2719 C.ar    1  UNL1        0.0273
     17 C          62.2561   88.2702   10.5915 C.ar    1  UNL1        0.0044
     18 C          61.6114   89.4869    9.9967 C.ar    1  UNL1        0.0072
     19 C          60.3502   89.0541    9.3094 C.ar    1  UNL1        0.0352
     20 S          60.2156   87.5698    9.4795 S.2     1  UNL1       -0.0891
@<TRIPOS>BOND
     1     1     2    1
     2     2    15    1
     3    15    16    1
     4    16    17   ar
     5    17    18   ar
     6    18    19   ar
     7    19    20   ar
     8     2     3   am
     9     3     4    2
    10     3     5    1
    11     5     6    1
    12     6     7    1
    13     7     8    1
    14     8     9    1
    15     9    10    1
    16    10    11    1
    17    11    12    1
    18    11    13    1
    19     9    14    1
    20    20    16   ar
    21    13     5    1
    22    14     5    1
    23    12     7    1
@<TRIPOS>MOLECULE
*****
 20 23 0 0 0
SMALL
GASTEIGER

@<TRIPOS>ATOM
      1 C          63.6560   83.5521   10.3271 C.3     1  UNL1        0.1152
      2 N          62.8510   84.8144   10.4208 N.am    1  UNL1       -0.2732
      3 C          62.6373   85.6600    9.2004 C.2     1  UNL1        0.2250
      4 O          63.2286   85.2433    7.8863 O.2     1  UNL1       -0.2749
      5 C          61.8323   86.9222    9.2940 C.3     1  UNL1        0.0691
      6 C          60.5452   87.0491    8.5343 C.3     1  UNL1        0.0086
      7 C          59.7403   88.3113    8.6280 C.3     1  UNL1        0.0005
      8 C          60.2225   89.4467    9.4814 C.3     1  UNL1        0.0000
      9 C          61.5096   89.3199   10.2411 C.3     1  UNL1        0.0005
     10 C          61.0846   86.4959    8.6122 C.3     1  UNL1        0.0000
     11 C          60.0630   85.9136    7.6809 C.3     1  UNL1        0.0005
     12 C          59.2581   87.1759    7.7746 C.3     1  UNL1        0.0000
     13 C          61.3502   85.7868    8.4406 C.3     1  UNL1        0.0086
     14 C          62.3145   88.0577   10.1474 C.3     1  UNL1        0.0086
     15 C          62.2598   85.2311   11.7348 C.3     1  UNL1        0.1266
     16 C          62.9533   84.8742   13.0162 C.ar    1  UNL1        0.0273
     17 C          63.9395   85.7310   13.7532 C.ar    1  UNL1        0.0044
     18 C          64.3780   84.9842   14.9780 C.ar    1  UNL1        0.0072
     19 C          63.6628   83.6657   14.9978 C.ar    1  UNL1        0.0352
     20 S          62.7822   83.5978   13.7853 S.2     1  UNL1       -0.0891
@<TRIPOS>BOND
     1     1     2    1
     2     2    15    1
     3    15    16    1
     4    16    17   ar
     5    17    18   ar
     6    18    19   ar
     7    19    20   ar
     8     2     3   am
     9     3     4    2
    10     3     5    1
    11     5     6    1
    12     6     7    1
    13     7     8    1
    14     8     9    1
    15     9    10    1
    16    10    11    1
    17    11    12    1
    18    11    13    1
    19     9    14    1
    20    20    16   ar
    21    13     5    1
    22    14     5    1
    23    12     7    1
@<TRIPOS>MOLECULE
*****
 20 23 0 0 0
SMALL
GASTEIGER

@<TRIPOS>ATOM
      1 C          63.4965   85.4835   13.4869 C.3     1  UNL1        0.1152
      2 N          63.1164   85.1575   12.0729 N.am    1  UNL1       -0.2732
      3 C          62.5490   86.2241   11.1839 C.2     1  UNL1        0.2250
      4 O          62.3618   87.6167   11.7087 O.2     1  UNL1       -0.2749
      5 C          62.1689   85.8980    9.7699 C.3     1  UNL1        0.0691
      6 C          60.8795   86.4129    9.2022 C.3     1  UNL1        0.0086
      7 C          60.4994   86.0869    7.7883 C.3     1  UNL1        0.0005
      8 C          61.4087   85.2460    6.9421 C.3     1  UNL1        0.0000
      9 C          62.6981   84.7311    7.5098 C.3     1  UNL1        0.0005
     10 C          61.2396   86.4711    9.8876 C.3     1  UNL1        0.0000
     11 C          59.9702   87.2538   10.0484 C.3     1  UNL1        0.0005
     12 C          59.5901   86.9278    8.6345 C.3     1  UNL1        0.0000
     13 C          61.2596   86.7390   10.6161 C.3     1  UNL1        0.0086
     14 C          63.0782   85.0571    8.9237 C.3     1  UNL1        0.0086
     15 C          63.3036   83.7648   11.5481 C.3     1  UNL1        0.1266
     16 C          62.8686   82.5884   12.3709 C.ar    1  UNL1        0.0273
     17 C          62.8777   81.1540   11.9323 C.ar    1  UNL1        0.0044
     18 C          62.3628   80.3191   13.0671 C.ar    1  UNL1        0.0072
     19 C          62.0356   81.2374   14.2071 C.ar    1  UNL1        0.0352
     20 S          62.3482   82.6401   13.7768 S.2     1  UNL1       -0.0891
@<TRIPOS>BOND
     1     1     2    1
     2     2    15    1
     3    15    16    1
     4    16    17   ar
     5    17    18   ar
     6    18    19   ar
     7    19    20   ar
     8     2     3   am
     9     3     4    2
    10     3     5    1
    11     5     6    1
    12     6     7    1
    13     7     8    1
    14     8     9    1
    15     9    10    1
    16    10    11    1
    17    11    12    1
    18    11    13    1
    19     9    14    1
    20    20    16   ar
    21    13     5    1
    22    14     5    1
    23    12     7    1
@<TRIPOS>MOLECULE
*****
 20 23 0 0 0
SMALL
GASTEIGER

@<TRIPOS>ATOM
      1 C          64.1926   83.6671   12.4477 C.3     1  UNL1        0.1152
      2 N          63.7406   84.8935   13.1838 N.am    1  UNL1       -0.2732
      3 C          64.5937   85.4707   14.2742 C.2     1  UNL1        0.2250
      4 O          65.8987   84.8216   14.6285 O.2     1  UNL1       -0.2749
      5 C          64.1417   86.6971   15.0103 C.3     1  UNL1        0.0691
      6 C          63.4290   86.5636   16.3234 C.3     1  UNL1        0.0086
      7 C          62.9770   87.7899   17.0594 C.3     1  UNL1        0.0005
      8 C          63.2379   89.1497   16.4824 C.3     1  UNL1        0.0000
      9 C          63.9506   89.2832   15.1694 C.3     1  UNL1        0.0005
     10 C          63.7302   86.0659   15.8091 C.3     1  UNL1        0.0000
     11 C          63.1681   85.2038   16.9004 C.3     1  UNL1        0.0005
     12 C          62.7162   86.4301   17.6364 C.3     1  UNL1        0.0000
     13 C          63.8809   85.3373   15.5873 C.3     1  UNL1        0.0086
     14 C          64.4025   88.0569   14.4333 C.3     1  UNL1        0.0086
     15 C          62.4356   85.5425   12.8295 C.3     1  UNL1        0.1266
     16 C          62.2968   86.2913   11.5371 C.ar    1  UNL1        0.0273
     17 C          62.4400   87.7735   11.3571 C.ar    1  UNL1        0.0044
     18 C          62.2222   88.0875    9.9066 C.ar    1  UNL1        0.0072
     19 C          61.9444   86.7992    9.1900 C.ar    1  UNL1        0.0352
     20 S          61.9905   85.6890   10.1978 S.2     1  UNL1       -0.0891
@<TRIPOS>BOND
     1     1     2    1
     2     2    15    1
     3    15    16    1
     4    16    17   ar
     5    17    18   ar
     6    18    19   ar
     7    19    20   ar
     8     2     3   am
     9     3     4    2
    10     3     5    1
    11     5     6    1
    12     6     7    1
    13     7     8    1
    14     8     9    1
    15     9    10    1
    16    10    11    1
    17    11    12    1
    18    11    13    1
    19     9    14    1
    20    20    16   ar
    21    13     5    1
    22    14     5    1
    23    12     7    1
@<TRIPOS>MOLECULE
*****
 20 23 0 0 0
SMALL
GASTEIGER

@<TRIPOS>ATOM
      1 C          63.8584   86.9544   13.3937 C.3     1  UNL1        0.1152
      2 N          63.2776   85.5974   13.1264 N.am    1  UNL1       -0.2732
      3 C          64.0192   84.3663   13.5559 C.2     1  UNL1        0.2250
      4 O          65.3416   84.4922   14.2526 O.2     1  UNL1       -0.2749
      5 C          63.4385   83.0093   13.2886 C.3     1  UNL1        0.0691
      6 C          63.6597   82.3471   11.9611 C.3     1  UNL1        0.0086
      7 C          63.0790   80.9901   11.6939 C.3     1  UNL1        0.0005
      8 C          62.2770   80.2955   12.7542 C.3     1  UNL1        0.0000
      9 C          62.0557   80.9578   14.0817 C.3     1  UNL1        0.0005
     10 C          63.8710   83.0230   12.2794 C.3     1  UNL1        0.0000
     11 C          64.4617   83.0417   10.9008 C.3     1  UNL1        0.0005
     12 C          63.8810   81.6848   10.6336 C.3     1  UNL1        0.0000
     13 C          64.2405   83.7040   12.2283 C.3     1  UNL1        0.0086
     14 C          62.6365   82.3147   14.3489 C.3     1  UNL1        0.0086
     15 C          61.9552   85.4715   12.4297 C.3     1  UNL1        0.1266
     16 C          61.7434   86.1291   11.0982 C.ar    1  UNL1        0.0273
     17 C          62.3270   85.6814    9.7909 C.ar    1  UNL1        0.0044
     18 C          61.8551   86.6254    8.7251 C.ar    1  UNL1        0.0072
     19 C          60.9798   87.6567    9.3736 C.ar    1  UNL1        0.0352
     20 S          60.9108   87.3499   10.8404 S.2     1  UNL1       -0.0891
@<TRIPOS>BOND
     1     1     2    1
     2     2    15    1
     3    15    16    1
     4    16    17   ar
     5    17    18   ar
     6    18    19   ar
     7    19    20   ar
     8     2     3   am
     9     3     4    2
    10     3     5    1
    11     5     6    1
    12     6     7    1
    13     7     8    1
    14     8     9    1
    15     9    10    1
    16    10    11    1
    17    11    12    1
    18    11    13    1
    19     9    14    1
    20    20    16   ar
    21    13     5    1
    22    14     5    1
    23    12     7    1
@<TRIPOS>MOLECULE
*****
 20 23 0 0 0
SMALL
GASTEIGER

@<TRIPOS>ATOM
      1 C          60.2519   89.7835   11.0918 C.3     1  UNL1        0.1152
      2 N          61.1921   88.6179   11.1782 N.am    1  UNL1       -0.2732
      3 C          60.8353   87.3164   10.5234 C.2     1  UNL1        0.2250
      4 O          59.5384   87.1805    9.7821 O.2     1  UNL1       -0.2749
      5 C          61.7755   86.1507   10.6098 C.3     1  UNL1        0.0691
      6 C          62.3872   85.5865    9.3619 C.3     1  UNL1        0.0086
      7 C          63.3273   84.4209    9.4483 C.3     1  UNL1        0.0005
      8 C          63.6557   83.8195   10.7827 C.3     1  UNL1        0.0000
      9 C          63.0440   84.3838   12.0307 C.3     1  UNL1        0.0005
     10 C          61.8952   86.1664    9.5184 C.3     1  UNL1        0.0000
     11 C          62.0587   86.1878    8.0275 C.3     1  UNL1        0.0005
     12 C          62.9989   85.0222    8.1140 C.3     1  UNL1        0.0000
     13 C          61.4471   86.7520    9.2754 C.3     1  UNL1        0.0086
     14 C          62.1039   85.5494   11.9442 C.3     1  UNL1        0.0086
     15 C          62.4890   88.7537   11.9195 C.3     1  UNL1        0.1266
     16 C          63.2879   90.0184   11.8076 C.ar    1  UNL1        0.0273
     17 C          63.4546   90.8494   10.5700 C.ar    1  UNL1        0.0044
     18 C          64.3300   92.0187   10.9112 C.ar    1  UNL1        0.0072
     19 C          64.7045   91.9103   12.3597 C.ar    1  UNL1        0.0352
     20 S          64.0604   90.6740   12.9137 S.2     1  UNL1       -0.0891
@<TRIPOS>BOND
     1     1     2    1
     2     2    15    1
     3    15    16    1
     4    16    17   ar
     5    17    18   ar
     6    18    19   ar
     7    19    20   ar
     8     2     3   am
     9     3     4    2
    10     3     5    1
    11     5     6    1
    12     6     7    1
    13     7     8    1
    14     8     9    1
    15     9    10    1
    16    10    11    1
    17    11    12    1
    18    11    13    1
    19     9    14    1
    20    20    16   ar
    21    13     5    1
    22    14     5    1
    23    12     7    1
@<TRIPOS>MOLECULE
*****
 20 23 0 0 0
SMALL
GASTEIGER

@<TRIPOS>ATOM
      1 C          63.2575   88.6068   16.4074 C.3     1  UNL1        0.1152
      2 N          63.8418   89.1700   15.1458 N.am    1  UNL1       -0.2732
      3 C          63.9729   90.6548   14.9776 C.2     1  UNL1        0.2250
      4 O          63.5196   91.5763   16.0709 O.2     1  UNL1       -0.2749
      5 C          64.5572   91.2180   13.7161 C.3     1  UNL1        0.0691
      6 C          65.9516   91.7707   13.7169 C.3     1  UNL1        0.0086
      7 C          66.5359   92.3339   12.4555 C.3     1  UNL1        0.0005
      8 C          65.7257   92.3444   11.1931 C.3     1  UNL1        0.0000
      9 C          64.3313   91.7917   11.1923 C.3     1  UNL1        0.0005
     10 C          65.4890   91.4472   14.2500 C.3     1  UNL1        0.0000
     11 C          66.7618   91.7602   14.9793 C.3     1  UNL1        0.0005
     12 C          67.3460   92.3234   13.7178 C.3     1  UNL1        0.0000
     13 C          65.3674   91.2075   14.9784 C.3     1  UNL1        0.0086
     14 C          63.7470   91.2285   12.4537 C.3     1  UNL1        0.0086
     15 C          64.2950   88.2485   14.0525 C.3     1  UNL1        0.1266
     16 C          64.1257   86.7656   14.2032 C.ar    1  UNL1        0.0273
     17 C          64.7518   85.9100   15.2643 C.ar    1  UNL1        0.0044
     18 C          64.3136   84.4937   15.0361 C.ar    1  UNL1        0.0072
     19 C          63.4165   84.4740   13.8341 C.ar    1  UNL1        0.0352
     20 S          63.3004   85.8782   13.3193 S.2     1  UNL1       -0.0891
@<TRIPOS>BOND
     1     1     2    1
     2     2    15    1
     3    15    16    1
     4    16    17   ar
     5    17    18   ar
     6    18    19   ar
     7    19    20   ar
     8     2     3   am
     9     3     4    2
    10     3     5    1
    11     5     6    1
    12     6     7    1
    13     7     8    1
    14     8     9    1
    15     9    10    1
    16    10    11    1
    17    11    12    1
    18    11    13    1
    19     9    14    1
    20    20    16   ar
    21    13     5    1
    22    14     5    1
    23    12     7    1
@<TRIPOS>MOLECULE
*****
 20 23 0 0 0
SMALL
GASTEIGER

@<TRIPOS>ATOM
      1 C          62.9226   89.3242   15.6460 C.3     1  UNL1        0.1152
      2 N          63.7329   89.8260   14.4877 N.am    1  UNL1       -0.2732
      3 C          64.4239   91.1545   14.5754 C.2     1  UNL1        0.2250
      4 O          64.3046   91.9812   15.8213 O.2     1  UNL1       -0.2749
      5 C          65.2343   91.6562   13.4171 C.3     1  UNL1        0.0691
      6 C          66.7203   91.8100   13.5520 C.3     1  UNL1        0.0086
      7 C          67.5306   92.3117   12.3938 C.3     1  UNL1        0.0005
      8 C          66.8549   92.6598   11.1006 C.3     1  UNL1        0.0000
      9 C          65.3690   92.5060   10.9656 C.3     1  UNL1        0.0005
     10 C          66.1479   91.5741   14.0207 C.3     1  UNL1        0.0000
     11 C          67.3959   91.4619   14.8452 C.3     1  UNL1        0.0005
     12 C          68.2062   91.9637   13.6870 C.3     1  UNL1        0.0000
     13 C          65.9100   91.3082   14.7103 C.3     1  UNL1        0.0086
     14 C          64.5587   92.0043   12.1239 C.3     1  UNL1        0.0086
     15 C          63.8523   88.9993   13.2418 C.3     1  UNL1        0.1266
     16 C          62.7084   88.9323   12.2738 C.ar    1  UNL1        0.0273
     17 C          61.6632   89.9886   12.0694 C.ar    1  UNL1        0.0044
     18 C          60.7178   89.5063   11.0095 C.ar    1  UNL1        0.0072
     19 C          61.1786   88.1518   10.5587 C.ar    1  UNL1        0.0352
     20 S          62.4090   87.7970   11.3401 S.2     1  UNL1       -0.0891
@<TRIPOS>BOND
     1     1     2    1
     2     2    15    1
     3    15    16    1
     4    16    17   ar
     5    17    18   ar
     6    18    19   ar
     7    19    20   ar
     8     2     3   am
     9     3     4    2
    10     3     5    1
    11     5     6    1
    12     6     7    1
    13     7     8    1
    14     8     9    1
    15     9    10    1
    16    10    11    1
    17    11    12    1
    18    11    13    1
    19     9    14    1
    20    20    16   ar
    21    13     5    1
    22    14     5    1
    23    12     7    1
@<TRIPOS>MOLECULE
*****
 20 23 0 0 0
SMALL
GASTEIGER

@<TRIPOS>ATOM
      1 C          62.7650   82.1613   11.5479 C.3     1  UNL1        0.1152
      2 N          62.7657   83.2981   12.5266 N.am    1  UNL1       -0.2732
      3 C          63.1851   83.0642   13.9476 C.2     1  UNL1        0.2250
      4 O          63.6038   81.6934   14.3900 O.2     1  UNL1       -0.2749
      5 C          63.1859   84.2010   14.9262 C.3     1  UNL1        0.0691
      6 C          64.3685   85.1202   15.0071 C.3     1  UNL1        0.0086
      7 C          64.3692   86.2569   15.9857 C.3     1  UNL1        0.0005
      8 C          63.1874   86.4745   16.8835 C.3     1  UNL1        0.0000
      9 C          62.0048   85.5553   16.8026 C.3     1  UNL1        0.0005
     10 C          64.1852   84.4975   14.5809 C.3     1  UNL1        0.0000
     11 C          65.5503   84.9027   14.1093 C.3     1  UNL1        0.0005
     12 C          65.5510   86.0394   15.0880 C.3     1  UNL1        0.0000
     13 C          64.3677   83.9835   14.0285 C.3     1  UNL1        0.0086
     14 C          62.0041   84.4185   15.8240 C.3     1  UNL1        0.0086
     15 C          62.3471   84.6689   12.0841 C.3     1  UNL1        0.1266
     16 C          62.3968   85.0356   10.6305 C.ar    1  UNL1        0.0273
     17 C          63.3978   84.5392    9.6297 C.ar    1  UNL1        0.0044
     18 C          63.0740   85.1600    8.3031 C.ar    1  UNL1        0.0072
     19 C          61.8728   86.0401    8.4840 C.ar    1  UNL1        0.0352
     20 S          61.4543   85.9632    9.9225 S.2     1  UNL1       -0.0891
@<TRIPOS>BOND
     1     1     2    1
     2     2    15    1
     3    15    16    1
     4    16    17   ar
     5    17    18   ar
     6    18    19   ar
     7    19    20   ar
     8     2     3   am
     9     3     4    2
    10     3     5    1
    11     5     6    1
    12     6     7    1
    13     7     8    1
    14     8     9    1
    15     9    10    1
    16    10    11    1
    17    11    12    1
    18    11    13    1
    19     9    14    1
    20    20    16   ar
    21    13     5    1
    22    14     5    1
    23    12     7    1
