@<TRIPOS>MOLECULE
*****
 27 29 0 0 0
SMALL
GASTEIGER

@<TRIPOS>ATOM
      1 C          61.2581   86.3691   10.3858 C.ar    1  UNL1        0.0812
      2 N          60.9516   85.6708    9.0941 N.ar    1  UNL1       -0.2455
      3 C          60.2765   86.4155    7.9808 C.ar    1  UNL1        0.1099
      4 C          59.9079   87.8585    8.1590 C.ar    1  UNL1        0.0780
      5 CL         59.2328   88.6033    7.0456 Cl      1  UNL1       -0.0806
      6 C          60.2144   88.5569    9.4507 C.ar    1  UNL1        0.0300
      7 C          60.8894   87.8122   10.5640 C.ar    1  UNL1        0.0796
      8 N          61.1959   88.5105   11.8558 N.pl3   1  UNL1       -0.2138
      9 H          60.6834   88.2917   12.6673 H       1  UNL1        0.1738
     10 S          62.2834   89.5422   11.9109 S.O2    1  UNL1        0.0736
     11 O          63.2323   88.5132   12.4501 O.2     1  UNL1       -0.1499
     12 O          61.3344   90.5712   11.3717 O.2     1  UNL1       -0.1499
     13 C          63.3708   90.5739   11.9661 C.ar    1  UNL1        0.1261
     14 C          63.7022   91.3803   10.7454 C.ar    1  UNL1        0.0211
     15 C          64.7896   92.4120   10.8005 C.ar    1  UNL1        0.0136
     16 C          65.5456   92.6374   12.0763 C.ar    1  UNL1        0.0683
     17 CL         66.6331   93.6691   12.1315 Cl      1  UNL1       -0.0814
     18 C          65.2143   91.8310   13.2969 C.ar    1  UNL1        0.0695
     19 CL         65.9703   92.0564   14.5728 Cl      1  UNL1       -0.0813
     20 C          64.1268   90.7993   13.2418 C.ar    1  UNL1        0.0324
     21 C          61.9332   85.6244   11.4992 C.3     1  UNL1        0.1143
     22 C          62.6307   83.1464   13.5049 C.3     1  UNL1        0.1570
     23 N          63.1537   83.3262   12.1106 N.ar    1  UNL1       -0.2145
     24 N          64.0891   82.3985   11.3934 N.ar    1  UNL1       -0.0431
     25 N          64.3466   82.9642   10.0282 N.ar    1  UNL1       -0.0230
     26 N          63.5703   84.2414    9.9017 N.ar    1  UNL1       -0.1123
     27 C          62.8331   84.4652   11.1887 C.ar    1  UNL1        0.1669
@<TRIPOS>BOND
     1    22    23    1
     2    23    24   ar
     3    24    25   ar
     4    25    26   ar
     5    26    27   ar
     6    27    21    1
     7    21     1    1
     8     1     2   ar
     9     2     3   ar
    10     3     4   ar
    11     4     5    1
    12     4     6   ar
    13     6     7   ar
    14     7     8    1
    15     8    10    1
    16    10    11    2
    17    10    12    2
    18    10    13    1
    19    13    14   ar
    20    14    15   ar
    21    15    16   ar
    22    16    17    1
    23    16    18   ar
    24    18    19    1
    25    18    20   ar
    26    27    23   ar
    27     7     1   ar
    28    20    13   ar
    29     8     9    1
@<TRIPOS>MOLECULE
*****
 27 29 0 0 0
SMALL
GASTEIGER

@<TRIPOS>ATOM
      1 C          64.0532   90.2782   14.4333 C.ar    1  UNL1        0.0812
      2 N          65.3835   90.9590   14.5623 N.ar    1  UNL1       -0.2455
      3 C          65.8923   91.8279   13.4506 C.ar    1  UNL1        0.1099
      4 C          65.0708   92.0160   12.2097 C.ar    1  UNL1        0.0780
      5 CL         65.5797   92.8850   11.0979 Cl      1  UNL1       -0.0806
      6 C          63.7405   91.3352   12.0807 C.ar    1  UNL1        0.0300
      7 C          63.2317   90.4663   13.1924 C.ar    1  UNL1        0.0796
      8 N          61.9013   89.7855   13.0634 N.pl3   1  UNL1       -0.2138
      9 H          61.2193   89.9008   13.7640 H       1  UNL1        0.1738
     10 S          61.6100   88.9290   11.8669 S.O2    1  UNL1        0.0736
     11 O          62.7568   88.0326   12.2294 O.2     1  UNL1       -0.1499
     12 O          60.4632   89.8254   11.5044 O.2     1  UNL1       -0.1499
     13 C          61.3187   88.0725   10.6705 C.ar    1  UNL1        0.1261
     14 C          59.9839   88.1609    9.9918 C.ar    1  UNL1        0.0211
     15 C          59.6926   87.3044    8.7953 C.ar    1  UNL1        0.0136
     16 C          60.7362   86.3595    8.2775 C.ar    1  UNL1        0.0683
     17 CL         60.4450   85.5030    7.0810 Cl      1  UNL1       -0.0814
     18 C          62.0710   86.2711    8.9561 C.ar    1  UNL1        0.0695
     19 CL         63.1145   85.3261    8.4383 Cl      1  UNL1       -0.0813
     20 C          62.3622   87.1276   10.1526 C.ar    1  UNL1        0.0324
     21 C          63.5444   89.4092   15.5451 C.3     1  UNL1        0.1143
     22 C          62.5413   87.2474   17.7744 C.3     1  UNL1        0.1570
     23 N          63.3848   86.9462   16.5712 N.ar    1  UNL1       -0.2145
     24 N          63.9154   85.5983   16.1815 N.ar    1  UNL1       -0.0431
     25 N          64.7044   85.7590   14.9159 N.ar    1  UNL1       -0.0230
     26 N          64.6614   87.2061   14.5235 N.ar    1  UNL1       -0.1123
     27 C          63.8459   87.9398   15.5465 C.ar    1  UNL1        0.1669
@<TRIPOS>BOND
     1    22    23    1
     2    23    24   ar
     3    24    25   ar
     4    25    26   ar
     5    26    27   ar
     6    27    21    1
     7    21     1    1
     8     1     2   ar
     9     2     3   ar
    10     3     4   ar
    11     4     5    1
    12     4     6   ar
    13     6     7   ar
    14     7     8    1
    15     8    10    1
    16    10    11    2
    17    10    12    2
    18    10    13    1
    19    13    14   ar
    20    14    15   ar
    21    15    16   ar
    22    16    17    1
    23    16    18   ar
    24    18    19    1
    25    18    20   ar
    26    27    23   ar
    27     7     1   ar
    28    20    13   ar
    29     8     9    1
@<TRIPOS>MOLECULE
*****
 27 29 0 0 0
SMALL
GASTEIGER

@<TRIPOS>ATOM
      1 C          64.8207   91.9660   12.3970 C.ar    1  UNL1        0.0812
      2 N          65.8429   91.7497   13.4732 N.ar    1  UNL1       -0.2455
      3 C          65.5913   90.7413   14.5548 C.ar    1  UNL1        0.1099
      4 C          64.3175   89.9492   14.5602 C.ar    1  UNL1        0.0780
      5 CL         64.0659   88.9408   15.6418 Cl      1  UNL1       -0.0806
      6 C          63.2953   90.1655   13.4840 C.ar    1  UNL1        0.0300
      7 C          63.5469   91.1739   12.4024 C.ar    1  UNL1        0.0796
      8 N          62.5247   91.3902   11.3261 N.pl3   1  UNL1       -0.2138
      9 H          62.1929   92.2978   11.1375 H       1  UNL1        0.1738
     10 S          62.0079   90.2238   10.5372 S.O2    1  UNL1        0.0736
     11 O          63.4021   89.9184   10.0755 O.2     1  UNL1       -0.1499
     12 O          60.6138   90.5292   10.9988 O.2     1  UNL1       -0.1499
     13 C          61.4912   89.0573    9.7483 C.ar    1  UNL1        0.1261
     14 C          60.1937   89.1710    9.0040 C.ar    1  UNL1        0.0211
     15 C          59.6770   88.0046    8.2151 C.ar    1  UNL1        0.0136
     16 C          60.4577   86.7245    8.1704 C.ar    1  UNL1        0.0683
     17 CL         59.9409   85.5580    7.3815 Cl      1  UNL1       -0.0814
     18 C          61.7550   86.6108    8.9147 C.ar    1  UNL1        0.0695
     19 CL         62.5357   85.3307    8.8700 Cl      1  UNL1       -0.0813
     20 C          62.2718   87.7773    9.7036 C.ar    1  UNL1        0.0324
     21 C          65.0723   92.9744   11.3154 C.3     1  UNL1        0.1143
     22 C          66.3189   95.7055   10.0360 C.3     1  UNL1        0.1570
     23 N          67.0221   94.3857   10.1529 N.ar    1  UNL1       -0.2145
     24 N          68.4219   94.0897    9.7023 N.ar    1  UNL1       -0.0431
     25 N          68.7141   92.6513   10.0119 N.ar    1  UNL1       -0.0230
     26 N          67.4948   92.0585   10.6539 N.ar    1  UNL1       -0.1123
     27 C          66.4492   93.1304   10.7410 C.ar    1  UNL1        0.1669
@<TRIPOS>BOND
     1    22    23    1
     2    23    24   ar
     3    24    25   ar
     4    25    26   ar
     5    26    27   ar
     6    27    21    1
     7    21     1    1
     8     1     2   ar
     9     2     3   ar
    10     3     4   ar
    11     4     5    1
    12     4     6   ar
    13     6     7   ar
    14     7     8    1
    15     8    10    1
    16    10    11    2
    17    10    12    2
    18    10    13    1
    19    13    14   ar
    20    14    15   ar
    21    15    16   ar
    22    16    17    1
    23    16    18   ar
    24    18    19    1
    25    18    20   ar
    26    27    23   ar
    27     7     1   ar
    28    20    13   ar
    29     8     9    1
@<TRIPOS>MOLECULE
*****
 27 29 0 0 0
SMALL
GASTEIGER

@<TRIPOS>ATOM
      1 C          62.7835   85.2295   10.0929 C.ar    1  UNL1        0.0812
      2 N          63.4905   83.9517    9.7505 N.ar    1  UNL1       -0.2455
      3 C          63.7885   82.9484   10.8250 C.ar    1  UNL1        0.1099
      4 C          63.3795   83.2229   12.2418 C.ar    1  UNL1        0.0780
      5 CL         63.6776   82.2195   13.3163 Cl      1  UNL1       -0.0806
      6 C          62.6725   84.5007   12.5842 C.ar    1  UNL1        0.0300
      7 C          62.3745   85.5040   11.5097 C.ar    1  UNL1        0.0796
      8 N          61.6675   86.7820   11.8521 N.pl3   1  UNL1       -0.2138
      9 H          60.6925   86.7838   11.9885 H       1  UNL1        0.1738
     10 S          62.4460   88.0570   11.9865 S.O2    1  UNL1        0.0736
     11 O          63.4858   87.3371   12.7930 O.2     1  UNL1       -0.1499
     12 O          61.4061   88.7770   11.1800 O.2     1  UNL1       -0.1499
     13 C          63.2245   89.3321   12.1209 C.ar    1  UNL1        0.1261
     14 C          63.3137   90.2820   10.9634 C.ar    1  UNL1        0.0211
     15 C          64.0922   91.5571   11.0978 C.ar    1  UNL1        0.0136
     16 C          64.7816   91.8823   12.3898 C.ar    1  UNL1        0.0683
     17 CL         65.5601   93.1573   12.5242 Cl      1  UNL1       -0.0814
     18 C          64.6924   90.9324   13.5472 C.ar    1  UNL1        0.0695
     19 CL         65.3817   91.2576   14.8392 Cl      1  UNL1       -0.0813
     20 C          63.9139   89.6573   13.4128 C.ar    1  UNL1        0.0324
     21 C          62.4854   86.2329    9.0184 C.3     1  UNL1        0.1143
     22 C          61.3038   84.6310    6.4324 C.3     1  UNL1        0.1570
     23 N          60.5521   85.6150    7.2790 N.ar    1  UNL1       -0.2145
     24 N          59.1253   86.0355    7.0855 N.ar    1  UNL1       -0.0431
     25 N          58.7866   87.0317    8.1545 N.ar    1  UNL1       -0.0230
     26 N          60.0041   87.2269    9.0087 N.ar    1  UNL1       -0.1123
     27 C          61.0952   86.3513    8.4676 C.ar    1  UNL1        0.1669
@<TRIPOS>BOND
     1    22    23    1
     2    23    24   ar
     3    24    25   ar
     4    25    26   ar
     5    26    27   ar
     6    27    21    1
     7    21     1    1
     8     1     2   ar
     9     2     3   ar
    10     3     4   ar
    11     4     5    1
    12     4     6   ar
    13     6     7   ar
    14     7     8    1
    15     8    10    1
    16    10    11    2
    17    10    12    2
    18    10    13    1
    19    13    14   ar
    20    14    15   ar
    21    15    16   ar
    22    16    17    1
    23    16    18   ar
    24    18    19    1
    25    18    20   ar
    26    27    23   ar
    27     7     1   ar
    28    20    13   ar
    29     8     9    1
@<TRIPOS>MOLECULE
*****
 27 29 0 0 0
SMALL
GASTEIGER

@<TRIPOS>ATOM
      1 C          61.8890   86.5702   10.7105 C.ar    1  UNL1        0.0812
      2 N          61.7286   85.6375    9.5468 N.ar    1  UNL1       -0.2455
      3 C          60.7253   85.9422    8.4743 C.ar    1  UNL1        0.1099
      4 C          59.8823   87.1796    8.5655 C.ar    1  UNL1        0.0780
      5 CL         58.8789   87.4842    7.4928 Cl      1  UNL1       -0.0806
      6 C          60.0427   88.1123    9.7292 C.ar    1  UNL1        0.0300
      7 C          61.0460   87.8076   10.8017 C.ar    1  UNL1        0.0796
      8 N          61.2065   88.7403   11.9655 N.pl3   1  UNL1       -0.2138
      9 H          60.5838   88.6897   12.7264 H       1  UNL1        0.1738
     10 S          62.3157   89.7500   11.9700 S.O2    1  UNL1        0.0736
     11 O          62.4302   89.6177   13.4598 O.2     1  UNL1       -0.1499
     12 O          62.2013   89.8824   10.4803 O.2     1  UNL1       -0.1499
     13 C          63.4250   90.7598   11.9745 C.ar    1  UNL1        0.1261
     14 C          63.7654   91.5055   10.7183 C.ar    1  UNL1        0.0211
     15 C          64.8747   92.5152   10.7228 C.ar    1  UNL1        0.0136
     16 C          65.6435   92.7792   11.9835 C.ar    1  UNL1        0.0683
     17 CL         66.7527   93.7890   11.9880 Cl      1  UNL1       -0.0814
     18 C          65.3030   92.0335   13.2397 C.ar    1  UNL1        0.0695
     19 CL         66.0718   92.2975   14.5004 Cl      1  UNL1       -0.0813
     20 C          64.1937   91.0238   13.2352 C.ar    1  UNL1        0.0324
     21 C          62.8924   86.2655   11.7832 C.3     1  UNL1        0.1143
     22 C          63.9479   83.3721   10.7046 C.3     1  UNL1        0.1570
     23 N          63.3060   83.6367   12.0342 N.ar    1  UNL1       -0.2145
     24 N          63.0366   82.6177   13.1015 N.ar    1  UNL1       -0.0431
     25 N          62.3849   83.3179   14.2570 N.ar    1  UNL1       -0.0230
     26 N          62.2516   84.7696   13.9037 N.ar    1  UNL1       -0.1123
     27 C          62.8209   84.9666   12.5300 C.ar    1  UNL1        0.1669
@<TRIPOS>BOND
     1    22    23    1
     2    23    24   ar
     3    24    25   ar
     4    25    26   ar
     5    26    27   ar
     6    27    21    1
     7    21     1    1
     8     1     2   ar
     9     2     3   ar
    10     3     4   ar
    11     4     5    1
    12     4     6   ar
    13     6     7   ar
    14     7     8    1
    15     8    10    1
    16    10    11    2
    17    10    12    2
    18    10    13    1
    19    13    14   ar
    20    14    15   ar
    21    15    16   ar
    22    16    17    1
    23    16    18   ar
    24    18    19    1
    25    18    20   ar
    26    27    23   ar
    27     7     1   ar
    28    20    13   ar
    29     8     9    1
@<TRIPOS>MOLECULE
*****
 27 29 0 0 0
SMALL
GASTEIGER

@<TRIPOS>ATOM
      1 C          62.3761   89.3680   11.1065 C.ar    1  UNL1        0.0812
      2 N          61.4707   90.0916   10.1544 N.ar    1  UNL1       -0.2455
      3 C          60.4220   89.3345    9.3948 C.ar    1  UNL1        0.1099
      4 C          60.2788   87.8538    9.5872 C.ar    1  UNL1        0.0780
      5 CL         59.2301   87.0968    8.8275 Cl      1  UNL1       -0.0806
      6 C          61.1843   87.1302   10.5393 C.ar    1  UNL1        0.0300
      7 C          62.2329   87.8873   11.2989 C.ar    1  UNL1        0.0796
      8 N          63.1385   87.1637   12.2511 N.pl3   1  UNL1       -0.2138
      9 H          63.8361   87.6582   12.7389 H       1  UNL1        0.1738
     10 S          62.9810   85.6867   12.4598 S.O2    1  UNL1        0.0736
     11 O          62.7650   85.5015   10.9870 O.2     1  UNL1       -0.1499
     12 O          63.1971   85.8718   13.9326 O.2     1  UNL1       -0.1499
     13 C          62.8236   84.2096   12.6686 C.ar    1  UNL1        0.1261
     14 C          62.4586   83.6783   14.0231 C.ar    1  UNL1        0.0211
     15 C          62.3012   82.2013   14.2318 C.ar    1  UNL1        0.0136
     16 C          62.5087   81.2556   13.0861 C.ar    1  UNL1        0.0683
     17 CL         62.3513   79.7785   13.2948 Cl      1  UNL1       -0.0814
     18 C          62.8737   81.7869   11.7317 C.ar    1  UNL1        0.0695
     19 CL         63.0812   80.8412   10.5859 Cl      1  UNL1       -0.0813
     20 C          63.0311   83.2639   11.5229 C.ar    1  UNL1        0.0324
     21 C          63.4249   90.1251   11.8662 C.3     1  UNL1        0.1143
     22 C          65.5102   91.7262   13.7995 C.3     1  UNL1        0.1570
     23 N          64.3118   90.9451   14.2508 N.ar    1  UNL1       -0.2145
     24 N          63.8615   90.7629   15.6699 N.ar    1  UNL1       -0.0431
     25 N          62.6246   89.9143   15.6584 N.ar    1  UNL1       -0.0230
     26 N          62.3106   89.5721   14.2321 N.ar    1  UNL1       -0.1123
     27 C          63.3533   90.2092   13.3621 C.ar    1  UNL1        0.1669
@<TRIPOS>BOND
     1    22    23    1
     2    23    24   ar
     3    24    25   ar
     4    25    26   ar
     5    26    27   ar
     6    27    21    1
     7    21     1    1
     8     1     2   ar
     9     2     3   ar
    10     3     4   ar
    11     4     5    1
    12     4     6   ar
    13     6     7   ar
    14     7     8    1
    15     8    10    1
    16    10    11    2
    17    10    12    2
    18    10    13    1
    19    13    14   ar
    20    14    15   ar
    21    15    16   ar
    22    16    17    1
    23    16    18   ar
    24    18    19    1
    25    18    20   ar
    26    27    23   ar
    27     7     1   ar
    28    20    13   ar
    29     8     9    1
@<TRIPOS>MOLECULE
*****
 27 29 0 0 0
SMALL
GASTEIGER

@<TRIPOS>ATOM
      1 C          62.5495   85.2021   11.3786 C.ar    1  UNL1        0.0812
      2 N          63.1148   83.9788   10.7200 N.ar    1  UNL1       -0.2455
      3 C          63.2624   83.9307    9.2281 C.ar    1  UNL1        0.1099
      4 C          62.8448   85.1059    8.3948 C.ar    1  UNL1        0.0780
      5 CL         62.9924   85.0577    6.9028 Cl      1  UNL1       -0.0806
      6 C          62.2795   86.3293    9.0534 C.ar    1  UNL1        0.0300
      7 C          62.1318   86.3774   10.5453 C.ar    1  UNL1        0.0796
      8 N          61.5665   87.6008   11.2040 N.pl3   1  UNL1       -0.2138
      9 H          60.6261   87.6131   11.4950 H       1  UNL1        0.1738
     10 S          62.4341   88.8054   11.4192 S.O2    1  UNL1        0.0736
     11 O          61.8505   89.4445   10.1941 O.2     1  UNL1       -0.1499
     12 O          63.0177   88.1662   12.6443 O.2     1  UNL1       -0.1499
     13 C          63.3017   90.0099   11.6344 C.ar    1  UNL1        0.1261
     14 C          63.4877   91.0073   10.5295 C.ar    1  UNL1        0.0211
     15 C          64.3553   92.2119   10.7447 C.ar    1  UNL1        0.0136
     16 C          65.0368   92.4191   12.0649 C.ar    1  UNL1        0.0683
     17 CL         65.9044   93.6236   12.2801 Cl      1  UNL1       -0.0814
     18 C          64.8507   91.4218   13.1697 C.ar    1  UNL1        0.0695
     19 CL         65.5322   91.6290   14.4898 Cl      1  UNL1       -0.0813
     20 C          63.9832   90.2172   12.9545 C.ar    1  UNL1        0.0324
     21 C          62.4018   85.2503   12.8706 C.3     1  UNL1        0.1143
     22 C          64.6112   85.4733   15.2620 C.3     1  UNL1        0.1570
     23 N          63.9241   84.2186   14.8106 N.ar    1  UNL1       -0.2145
     24 N          64.1319   82.8462   15.3791 N.ar    1  UNL1       -0.0431
     25 N          63.2448   81.8955   14.6313 N.ar    1  UNL1       -0.0230
     26 N          62.4888   82.6804   13.6006 N.ar    1  UNL1       -0.1123
     27 C          62.9086   84.1162   13.7114 C.ar    1  UNL1        0.1669
@<TRIPOS>BOND
     1    22    23    1
     2    23    24   ar
     3    24    25   ar
     4    25    26   ar
     5    26    27   ar
     6    27    21    1
     7    21     1    1
     8     1     2   ar
     9     2     3   ar
    10     3     4   ar
    11     4     5    1
    12     4     6   ar
    13     6     7   ar
    14     7     8    1
    15     8    10    1
    16    10    11    2
    17    10    12    2
    18    10    13    1
    19    13    14   ar
    20    14    15   ar
    21    15    16   ar
    22    16    17    1
    23    16    18   ar
    24    18    19    1
    25    18    20   ar
    26    27    23   ar
    27     7     1   ar
    28    20    13   ar
    29     8     9    1
@<TRIPOS>MOLECULE
*****
 27 29 0 0 0
SMALL
GASTEIGER

@<TRIPOS>ATOM
      1 C          61.9440   86.7969   10.7998 C.ar    1  UNL1        0.0812
      2 N          61.8521   85.8922    9.6069 N.ar    1  UNL1       -0.2455
      3 C          60.8991   86.2131    8.4940 C.ar    1  UNL1        0.1099
      4 C          60.0379   87.4387    8.5739 C.ar    1  UNL1        0.0780
      5 CL         59.0848   87.7595    7.4609 Cl      1  UNL1       -0.0806
      6 C          60.1299   88.3434    9.7668 C.ar    1  UNL1        0.0300
      7 C          61.0829   88.0225   10.8797 C.ar    1  UNL1        0.0796
      8 N          61.1749   88.9272   12.0727 N.pl3   1  UNL1       -0.2138
      9 H          60.4320   88.9689   12.7174 H       1  UNL1        0.1738
     10 S          62.3988   89.7684   12.2834 S.O2    1  UNL1        0.0736
     11 O          62.5845   89.8702   10.7984 O.2     1  UNL1       -0.1499
     12 O          62.2132   89.6666   13.7684 O.2     1  UNL1       -0.1499
     13 C          63.6227   90.6097   12.4941 C.ar    1  UNL1        0.1261
     14 C          64.3935   90.5044   13.7767 C.ar    1  UNL1        0.0211
     15 C          65.6174   91.3456   13.9874 C.ar    1  UNL1        0.0136
     16 C          66.0705   92.2921   12.9155 C.ar    1  UNL1        0.0683
     17 CL         67.2944   93.1333   13.1262 Cl      1  UNL1       -0.0814
     18 C          65.2998   92.3973   11.6330 C.ar    1  UNL1        0.0695
     19 CL         65.7530   93.3438   10.5611 Cl      1  UNL1       -0.0813
     20 C          64.0759   91.5561   11.4223 C.ar    1  UNL1        0.0324
     21 C          62.8971   86.4760   11.9128 C.3     1  UNL1        0.1143
     22 C          63.8496   83.6059   10.6860 C.3     1  UNL1        0.1570
     23 N          63.2558   83.8305   12.0451 N.ar    1  UNL1       -0.2145
     24 N          62.9956   82.7751   13.0788 N.ar    1  UNL1       -0.0431
     25 N          62.3970   83.4422   14.2816 N.ar    1  UNL1       -0.0230
     26 N          62.2873   84.9097   13.9912 N.ar    1  UNL1       -0.1123
     27 C          62.8180   85.1497   12.6090 C.ar    1  UNL1        0.1669
@<TRIPOS>BOND
     1    22    23    1
     2    23    24   ar
     3    24    25   ar
     4    25    26   ar
     5    26    27   ar
     6    27    21    1
     7    21     1    1
     8     1     2   ar
     9     2     3   ar
    10     3     4   ar
    11     4     5    1
    12     4     6   ar
    13     6     7   ar
    14     7     8    1
    15     8    10    1
    16    10    11    2
    17    10    12    2
    18    10    13    1
    19    13    14   ar
    20    14    15   ar
    21    15    16   ar
    22    16    17    1
    23    16    18   ar
    24    18    19    1
    25    18    20   ar
    26    27    23   ar
    27     7     1   ar
    28    20    13   ar
    29     8     9    1
@<TRIPOS>MOLECULE
*****
 27 29 0 0 0
SMALL
GASTEIGER

@<TRIPOS>ATOM
      1 C          61.6636   88.7322   11.0677 C.ar    1  UNL1        0.0812
      2 N          60.7496   89.3754   10.0673 N.ar    1  UNL1       -0.2455
      3 C          60.1281   88.5501    8.9799 C.ar    1  UNL1        0.1099
      4 C          60.4205   87.0814    8.8930 C.ar    1  UNL1        0.0780
      5 CL         59.7989   86.2560    7.8055 Cl      1  UNL1       -0.0806
      6 C          61.3344   86.4381    9.8934 C.ar    1  UNL1        0.0300
      7 C          61.9560   87.2635   10.9808 C.ar    1  UNL1        0.0796
      8 N          62.8700   86.6203   11.9813 N.pl3   1  UNL1       -0.2138
      9 H          63.5245   87.1671   12.4729 H       1  UNL1        0.1738
     10 S          62.7865   85.1438   12.2326 S.O2    1  UNL1        0.0736
     11 O          62.4129   85.4082   13.6611 O.2     1  UNL1       -0.1499
     12 O          63.1602   84.8795   10.8042 O.2     1  UNL1       -0.1499
     13 C          62.7031   83.6674   12.4840 C.ar    1  UNL1        0.1261
     14 C          62.4179   83.1567   13.8653 C.ar    1  UNL1        0.0211
     15 C          62.3345   81.6803   14.1167 C.ar    1  UNL1        0.0136
     16 C          62.5363   80.7145   12.9868 C.ar    1  UNL1        0.0683
     17 CL         62.4529   79.2381   13.2382 Cl      1  UNL1       -0.0814
     18 C          62.8216   81.2252   11.6056 C.ar    1  UNL1        0.0695
     19 CL         63.0234   80.2595   10.4756 Cl      1  UNL1       -0.0813
     20 C          62.9050   82.7017   11.3542 C.ar    1  UNL1        0.0324
     21 C          62.2851   89.5576   12.1551 C.3     1  UNL1        0.1143
     22 C          64.4459   90.8892   14.2063 C.3     1  UNL1        0.1570
     23 N          64.2838   91.2284   12.7542 N.ar    1  UNL1       -0.2145
     24 N          65.0864   92.2392   11.9899 N.ar    1  UNL1       -0.0431
     25 N          64.5893   92.2518   10.5748 N.ar    1  UNL1       -0.0230
     26 N          63.4794   91.2488   10.4644 N.ar    1  UNL1       -0.1123
     27 C          63.2906   90.6163   11.8114 C.ar    1  UNL1        0.1669
@<TRIPOS>BOND
     1    22    23    1
     2    23    24   ar
     3    24    25   ar
     4    25    26   ar
     5    26    27   ar
     6    27    21    1
     7    21     1    1
     8     1     2   ar
     9     2     3   ar
    10     3     4   ar
    11     4     5    1
    12     4     6   ar
    13     6     7   ar
    14     7     8    1
    15     8    10    1
    16    10    11    2
    17    10    12    2
    18    10    13    1
    19    13    14   ar
    20    14    15   ar
    21    15    16   ar
    22    16    17    1
    23    16    18   ar
    24    18    19    1
    25    18    20   ar
    26    27    23   ar
    27     7     1   ar
    28    20    13   ar
    29     8     9    1
