@<TRIPOS>MOLECULE
*****
 15 17 0 0 0
SMALL
GASTEIGER

@<TRIPOS>ATOM
      1 C          62.0989   88.8470   10.6645 C.2     1  UNL1        0.3752
      2 N          62.5283   88.2218   11.9586 N.2     1  UNL1       -0.0308
      3 C          63.4022   89.2041   12.6806 C.2     1  UNL1        0.2321
      4 C          64.1114   89.1357   14.0005 C.2     1  UNL1        0.0498
      5 C          64.9314   90.2997   14.4725 C.2     1  UNL1       -0.0002
      6 C          65.0422   91.5320   13.6246 C.2     1  UNL1       -0.0172
      7 C          64.3330   91.6004   12.3046 C.3     1  UNL1        0.1037
      8 C          63.5130   90.4365   11.8326 C.2     1  UNL1        0.2178
      9 N          62.7075   90.2157   10.5867 N.2     1  UNL1       -0.0347
     10 C          59.4502   86.9494    7.5607 C.ar    1  UNL1        0.0000
     11 C          60.3796   86.0990    8.3749 C.ar    1  UNL1        0.0003
     12 C          61.2625   86.7315    9.4095 C.ar    1  UNL1        0.0077
     13 C          61.2160   88.2144    9.6299 C.ar    1  UNL1        0.0884
     14 C          60.2867   89.0649    8.8157 C.ar    1  UNL1        0.0077
     15 C          59.4038   88.4324    7.7811 C.ar    1  UNL1        0.0003
@<TRIPOS>BOND
     1    10    11   ar
     2    11    12   ar
     3    12    13   ar
     4    13     1    1
     5     1     2    2
     6     2     3    1
     7     3     4    2
     8     4     5    1
     9     5     6    2
    10     6     7    1
    11     7     8    1
    12     8     9    2
    13    13    14   ar
    14    14    15   ar
    15    15    10   ar
    16     9     1    1
    17     8     3    1
@<TRIPOS>MOLECULE
*****
 15 17 0 0 0
SMALL
GASTEIGER

@<TRIPOS>ATOM
      1 C          62.1042   88.8455   10.6725 C.2     1  UNL1        0.3752
      2 N          62.7179   90.2120   10.5945 N.2     1  UNL1       -0.0308
      3 C          63.5241   90.4299   11.8405 C.2     1  UNL1        0.2321
      4 C          64.3484   91.5908   12.3124 C.2     1  UNL1        0.0498
      5 C          65.0572   91.5199   13.6324 C.2     1  UNL1       -0.0002
      6 C          64.9418   90.2881   14.4805 C.2     1  UNL1       -0.0172
      7 C          64.1175   89.1271   14.0086 C.3     1  UNL1        0.1037
      8 C          63.4087   89.1981   12.6886 C.2     1  UNL1        0.2178
      9 N          62.5311   88.2189   11.9667 N.2     1  UNL1       -0.0347
     10 C          59.4486   86.9575    7.5687 C.ar    1  UNL1        0.0000
     11 C          60.3658   86.1022    8.3916 C.ar    1  UNL1        0.0003
     12 C          61.2510   86.7316    9.4261 C.ar    1  UNL1        0.0077
     13 C          61.2190   88.2162    9.6379 C.ar    1  UNL1        0.0884
     14 C          60.3017   89.0714    8.8150 C.ar    1  UNL1        0.0077
     15 C          59.4165   88.4421    7.7805 C.ar    1  UNL1        0.0003
@<TRIPOS>BOND
     1    10    11   ar
     2    11    12   ar
     3    12    13   ar
     4    13     1    1
     5     1     2    2
     6     2     3    1
     7     3     4    2
     8     4     5    1
     9     5     6    2
    10     6     7    1
    11     7     8    1
    12     8     9    2
    13    13    14   ar
    14    14    15   ar
    15    15    10   ar
    16     9     1    1
    17     8     3    1
@<TRIPOS>MOLECULE
*****
 15 17 0 0 0
SMALL
GASTEIGER

@<TRIPOS>ATOM
      1 C          62.4288   89.1582   11.1006 C.2     1  UNL1        0.3752
      2 N          62.2344   87.6899   10.8631 N.2     1  UNL1       -0.0308
      3 C          61.2435   87.5277    9.7488 C.2     1  UNL1        0.2321
      4 C          60.6678   86.3111    9.0867 C.2     1  UNL1        0.0498
      5 C          59.6741   86.4625    7.9734 C.2     1  UNL1       -0.0002
      6 C          59.2560   87.8306    7.5221 C.2     1  UNL1       -0.0172
      7 C          59.8317   89.0472    8.1842 C.3     1  UNL1        0.1037
      8 C          60.8254   88.8958    9.2975 C.2     1  UNL1        0.2178
      9 N          61.5580   89.9035   10.1330 N.2     1  UNL1       -0.0347
     10 C          65.1471   91.0032   14.1757 C.ar    1  UNL1        0.0000
     11 C          64.6087   89.6189   14.3848 C.ar    1  UNL1        0.0003
     12 C          63.7026   89.0039   13.3597 C.ar    1  UNL1        0.0077
     13 C          63.3349   89.7732   12.1256 C.ar    1  UNL1        0.0884
     14 C          63.8734   91.1575   11.9166 C.ar    1  UNL1        0.0077
     15 C          64.7795   91.7725   12.9417 C.ar    1  UNL1        0.0003
@<TRIPOS>BOND
     1    10    11   ar
     2    11    12   ar
     3    12    13   ar
     4    13     1    1
     5     1     2    2
     6     2     3    1
     7     3     4    2
     8     4     5    1
     9     5     6    2
    10     6     7    1
    11     7     8    1
    12     8     9    2
    13    13    14   ar
    14    14    15   ar
    15    15    10   ar
    16     9     1    1
    17     8     3    1
@<TRIPOS>MOLECULE
*****
 15 17 0 0 0
SMALL
GASTEIGER

@<TRIPOS>ATOM
      1 C          62.4238   89.1093   11.1544 C.2     1  UNL1        0.3752
      2 N          61.6232   89.8847   10.1504 N.2     1  UNL1       -0.0308
      3 C          60.8609   88.9047    9.3088 C.2     1  UNL1        0.2321
      4 C          59.9093   89.0914    8.1644 C.2     1  UNL1        0.0498
      5 C          59.2871   87.8971    7.5039 C.2     1  UNL1       -0.0002
      6 C          59.6165   86.5160    7.9877 C.2     1  UNL1       -0.0172
      7 C          60.5681   86.3292    9.1320 C.3     1  UNL1        0.1037
      8 C          61.1902   87.5236    9.7926 C.2     1  UNL1        0.2178
      9 N          62.1562   87.6501   10.9332 N.2     1  UNL1       -0.0347
     10 C          65.1496   90.8546   14.2807 C.ar    1  UNL1        0.0000
     11 C          64.7841   91.6608   13.0698 C.ar    1  UNL1        0.0003
     12 C          63.8754   91.0791   12.0277 C.ar    1  UNL1        0.0077
     13 C          63.3324   89.6911   12.1965 C.ar    1  UNL1        0.0884
     14 C          63.6979   88.8848   13.4074 C.ar    1  UNL1        0.0077
     15 C          64.6065   89.4666   14.4495 C.ar    1  UNL1        0.0003
@<TRIPOS>BOND
     1    10    11   ar
     2    11    12   ar
     3    12    13   ar
     4    13     1    1
     5     1     2    2
     6     2     3    1
     7     3     4    2
     8     4     5    1
     9     5     6    2
    10     6     7    1
    11     7     8    1
    12     8     9    2
    13    13    14   ar
    14    14    15   ar
    15    15    10   ar
    16     9     1    1
    17     8     3    1
@<TRIPOS>MOLECULE
*****
 15 17 0 0 0
SMALL
GASTEIGER

@<TRIPOS>ATOM
      1 C          61.7642   85.8604   10.2852 C.2     1  UNL1        0.3752
      2 N          61.7127   85.7800   11.7821 N.2     1  UNL1       -0.0308
      3 C          62.6354   84.6811   12.2193 C.2     1  UNL1        0.2321
      4 C          62.9897   84.1483   13.5760 C.2     1  UNL1        0.0498
      5 C          63.9658   83.0168   13.7059 C.2     1  UNL1       -0.0002
      6 C          64.5875   82.4180   12.4791 C.2     1  UNL1       -0.0172
      7 C          64.2331   82.9508   11.1224 C.3     1  UNL1        0.1037
      8 C          63.2571   84.0823   10.9926 C.2     1  UNL1        0.2178
      9 N          62.7187   84.8112    9.7972 N.2     1  UNL1       -0.0347
     10 C          59.4598   88.7432    7.7104 C.ar    1  UNL1        0.0000
     11 C          59.3107   87.2655    7.5002 C.ar    1  UNL1        0.0003
     12 C          60.0789   86.3046    8.3584 C.ar    1  UNL1        0.0077
     13 C          60.9961   86.8214    9.4269 C.ar    1  UNL1        0.0884
     14 C          61.1452   88.2990    9.6371 C.ar    1  UNL1        0.0077
     15 C          60.3770   89.2599    8.7788 C.ar    1  UNL1        0.0003
@<TRIPOS>BOND
     1    10    11   ar
     2    11    12   ar
     3    12    13   ar
     4    13     1    1
     5     1     2    2
     6     2     3    1
     7     3     4    2
     8     4     5    1
     9     5     6    2
    10     6     7    1
    11     7     8    1
    12     8     9    2
    13    13    14   ar
    14    14    15   ar
    15    15    10   ar
    16     9     1    1
    17     8     3    1
@<TRIPOS>MOLECULE
*****
 15 17 0 0 0
SMALL
GASTEIGER

@<TRIPOS>ATOM
      1 C          61.7614   85.8591   10.2863 C.2     1  UNL1        0.3752
      2 N          62.7164   84.8109    9.7973 N.2     1  UNL1       -0.0308
      3 C          63.2550   84.0808   10.9919 C.2     1  UNL1        0.2321
      4 C          64.2315   82.9496   11.1205 C.2     1  UNL1        0.0498
      5 C          64.5859   82.4154   12.4766 C.2     1  UNL1       -0.0002
      6 C          63.9638   83.0125   13.7040 C.2     1  UNL1       -0.0172
      7 C          62.9873   84.1438   13.5753 C.3     1  UNL1        0.1037
      8 C          62.6329   84.6780   12.2192 C.2     1  UNL1        0.2178
      9 N          61.7099   85.7770   11.7832 N.2     1  UNL1       -0.0347
     10 C          59.4561   88.7438    7.7146 C.ar    1  UNL1        0.0000
     11 C          59.3099   87.2664    7.5008 C.ar    1  UNL1        0.0003
     12 C          60.0783   86.3048    8.3580 C.ar    1  UNL1        0.0077
     13 C          60.9930   86.8207    9.4291 C.ar    1  UNL1        0.0884
     14 C          61.1392   88.2981    9.6429 C.ar    1  UNL1        0.0077
     15 C          60.3708   89.2597    8.7856 C.ar    1  UNL1        0.0003
@<TRIPOS>BOND
     1    10    11   ar
     2    11    12   ar
     3    12    13   ar
     4    13     1    1
     5     1     2    2
     6     2     3    1
     7     3     4    2
     8     4     5    1
     9     5     6    2
    10     6     7    1
    11     7     8    1
    12     8     9    2
    13    13    14   ar
    14    14    15   ar
    15    15    10   ar
    16     9     1    1
    17     8     3    1
@<TRIPOS>MOLECULE
*****
 15 17 0 0 0
SMALL
GASTEIGER

@<TRIPOS>ATOM
      1 C          62.6325   85.6181   11.9589 C.2     1  UNL1        0.3752
      2 N          62.4339   85.0834   13.3462 N.2     1  UNL1       -0.0308
      3 C          62.5335   83.5880   13.2854 C.2     1  UNL1        0.2321
      4 C          62.4208   82.5307   14.3434 C.2     1  UNL1        0.0498
      5 C          62.5684   81.0838   13.9765 C.2     1  UNL1       -0.0002
      6 C          62.8287   80.6942   12.5515 C.2     1  UNL1       -0.0172
      7 C          62.9413   81.7514   11.4935 C.3     1  UNL1        0.1037
      8 C          62.7937   83.1983   11.8604 C.2     1  UNL1        0.2178
      9 N          62.8549   84.4530   11.0406 N.2     1  UNL1       -0.0347
     10 C          62.5720   89.9555   10.7618 C.ar    1  UNL1        0.0000
     11 C          61.9758   88.9191    9.8561 C.ar    1  UNL1        0.0003
     12 C          61.9959   87.4733   10.2551 C.ar    1  UNL1        0.0077
     13 C          62.6123   87.0639   11.5598 C.ar    1  UNL1        0.0884
     14 C          63.2085   88.1003   12.4656 C.ar    1  UNL1        0.0077
     15 C          63.1884   89.5461   12.0665 C.ar    1  UNL1        0.0003
@<TRIPOS>BOND
     1    10    11   ar
     2    11    12   ar
     3    12    13   ar
     4    13     1    1
     5     1     2    2
     6     2     3    1
     7     3     4    2
     8     4     5    1
     9     5     6    2
    10     6     7    1
    11     7     8    1
    12     8     9    2
    13    13    14   ar
    14    14    15   ar
    15    15    10   ar
    16     9     1    1
    17     8     3    1
@<TRIPOS>MOLECULE
*****
 15 17 0 0 0
SMALL
GASTEIGER

@<TRIPOS>ATOM
      1 C          62.7262   85.4703   12.1784 C.2     1  UNL1        0.3752
      2 N          63.2994   86.5888   12.9972 N.2     1  UNL1       -0.0308
      3 C          63.0741   87.8712   12.2523 C.2     1  UNL1        0.2321
      4 C          63.4257   89.2936   12.5735 C.2     1  UNL1        0.0498
      5 C          63.0648   90.3900   11.6156 C.2     1  UNL1       -0.0002
      6 C          62.3524   90.0640   10.3365 C.2     1  UNL1       -0.0172
      7 C          62.0008   88.6416   10.0153 C.3     1  UNL1        0.1037
      8 C          62.3617   87.5452   10.9732 C.2     1  UNL1        0.2178
      9 N          62.1467   86.0614   10.9275 N.2     1  UNL1       -0.0347
     10 C          62.7424   81.1076   13.2812 C.ar    1  UNL1        0.0000
     11 C          62.5198   82.1477   14.3388 C.ar    1  UNL1        0.0003
     12 C          62.5144   83.6019   13.9712 C.ar    1  UNL1        0.0077
     13 C          62.7316   84.0161   12.5460 C.ar    1  UNL1        0.0884
     14 C          62.9542   82.9760   11.4884 C.ar    1  UNL1        0.0077
     15 C          62.9596   81.5217   11.8560 C.ar    1  UNL1        0.0003
@<TRIPOS>BOND
     1    10    11   ar
     2    11    12   ar
     3    12    13   ar
     4    13     1    1
     5     1     2    2
     6     2     3    1
     7     3     4    2
     8     4     5    1
     9     5     6    2
    10     6     7    1
    11     7     8    1
    12     8     9    2
    13    13    14   ar
    14    14    15   ar
    15    15    10   ar
    16     9     1    1
    17     8     3    1
@<TRIPOS>MOLECULE
*****
 15 17 0 0 0
SMALL
GASTEIGER

@<TRIPOS>ATOM
      1 C          63.1864   85.2535   13.0434 C.2     1  UNL1        0.3752
      2 N          63.8833   85.9783   14.1564 N.2     1  UNL1       -0.0308
      3 C          63.8737   87.4431   13.8333 C.2     1  UNL1        0.2321
      4 C          64.4141   88.6359   14.5649 C.2     1  UNL1        0.0498
      5 C          64.2516   90.0091   13.9836 C.2     1  UNL1       -0.0002
      6 C          63.5488   90.1895   12.6708 C.2     1  UNL1       -0.0172
      7 C          63.0084   88.9967   11.9393 C.3     1  UNL1        0.1037
      8 C          63.1708   87.6235   12.5205 C.2     1  UNL1        0.2178
      9 N          62.7461   86.2703   12.0323 N.2     1  UNL1       -0.0347
     10 C          62.5317   80.8090   12.7830 C.ar    1  UNL1        0.0000
     11 C          62.9660   81.5755   11.5690 C.ar    1  UNL1        0.0003
     12 C          63.1842   83.0570   11.6558 C.ar    1  UNL1        0.0077
     13 C          62.9682   83.7720   12.9566 C.ar    1  UNL1        0.0884
     14 C          62.5339   83.0055   14.1706 C.ar    1  UNL1        0.0077
     15 C          62.3157   81.5240   14.0838 C.ar    1  UNL1        0.0003
@<TRIPOS>BOND
     1    10    11   ar
     2    11    12   ar
     3    12    13   ar
     4    13     1    1
     5     1     2    2
     6     2     3    1
     7     3     4    2
     8     4     5    1
     9     5     6    2
    10     6     7    1
    11     7     8    1
    12     8     9    2
    13    13    14   ar
    14    14    15   ar
    15    15    10   ar
    16     9     1    1
    17     8     3    1
