@<TRIPOS>MOLECULE
*****
 31 34 0 0 0
SMALL
GASTEIGER

@<TRIPOS>ATOM
      1 C          65.1972   92.0954   15.5635 C.ar    1  UNL1        0.1399
      2 C          64.4819   91.2627   16.5857 C.ar    1  UNL1        0.0370
      3 C          63.5099   90.2079   16.1468 C.ar    1  UNL1        0.0046
      4 C          63.2532   89.9858   14.6858 C.ar    1  UNL1        0.0191
      5 C          63.9685   90.8185   13.6636 C.ar    1  UNL1        0.0852
      6 C          64.9405   91.8733   14.1025 C.ar    1  UNL1        0.0503
      7 C          65.4927   92.5345   12.8745 C.ar    1  UNL1        0.0172
      8 C          64.8620   91.8884   11.6767 C.ar    1  UNL1        0.0971
      9 N          63.9200   90.8278   12.1644 N.ar    1  UNL1       -0.2079
     10 S          63.0774   89.9336   11.3040 S.O2    1  UNL1        0.0860
     11 O          63.3699   88.7798   12.2166 O.2     1  UNL1       -0.1476
     12 O          62.7849   91.0874   10.3913 O.2     1  UNL1       -0.1476
     13 C          62.2347   89.0394   10.4435 C.ar    1  UNL1        0.1277
     14 C          61.2335   89.6343    9.4982 C.ar    1  UNL1        0.0201
     15 C          60.3910   88.7401    8.6378 C.ar    1  UNL1       -0.0029
     16 C          60.5496   87.2509    8.7226 C.ar    1  UNL1       -0.0224
     17 C          61.5508   86.6560    9.6679 C.ar    1  UNL1       -0.0029
     18 C          62.3934   87.5502   10.5284 C.ar    1  UNL1        0.0201
     19 C          59.7070   86.3567    7.8621 C.3     1  UNL1        0.0224
     20 C          58.2214   86.5556    7.8027 C.3     1  UNL1        0.0047
     21 C          60.3500   85.2636    7.0610 C.3     1  UNL1        0.0047
     22 C          67.6329   92.8331   16.0862 C.3     1  UNL1        0.2525
     23 O          66.1692   93.1502   16.0024 O.3     1  UNL1       -0.4714
     24 C          66.4990   93.6466   12.8489 C.3     1  UNL1        0.1009
     25 N          66.6984   94.4490   11.5972 N.3     1  UNL1       -0.2665
     26 C          67.2972   93.8059   10.3815 C.3     1  UNL1        0.0899
     27 C          67.4965   94.6083    9.1300 C.3     1  UNL1        0.0897
     28 N          67.0971   96.0537    9.0941 N.3     1  UNL1       -0.2691
     29 C          67.2965   96.8560    7.8425 C.3     1  UNL1        0.0897
     30 C          66.4983   96.6967   10.3098 C.3     1  UNL1        0.0897
     31 C          66.2990   95.8944   11.5613 C.3     1  UNL1        0.0899
@<TRIPOS>BOND
     1    22    23    1
     2    23     1    1
     3     1     2   ar
     4     2     3   ar
     5     3     4   ar
     6     4     5   ar
     7     5     6   ar
     8     6     7   ar
     9     7    24    1
    10    24    25    1
    11    25    26    1
    12    26    27    1
    13    27    28    1
    14    28    29    1
    15    28    30    1
    16    30    31    1
    17     7     8   ar
    18     8     9   ar
    19     9    10    1
    20    10    11    2
    21    10    12    2
    22    10    13    1
    23    13    14   ar
    24    14    15   ar
    25    15    16   ar
    26    16    19    1
    27    19    20    1
    28    19    21    1
    29    16    17   ar
    30    17    18   ar
    31     6     1   ar
    32    31    25    1
    33    18    13   ar
    34     9     5   ar
@<TRIPOS>MOLECULE
*****
 31 34 0 0 0
SMALL
GASTEIGER

@<TRIPOS>ATOM
      1 C          63.9348   91.4737   12.0317 C.ar    1  UNL1        0.1399
      2 C          63.4677   91.3050   10.6163 C.ar    1  UNL1        0.0370
      3 C          63.0155   89.9596   10.1310 C.ar    1  UNL1        0.0046
      4 C          63.0305   88.7829   11.0611 C.ar    1  UNL1        0.0191
      5 C          63.4977   88.9516   12.4764 C.ar    1  UNL1        0.0852
      6 C          63.9498   90.2970   12.9617 C.ar    1  UNL1        0.0503
      7 C          64.3542   90.1592   14.3996 C.ar    1  UNL1        0.0172
      8 C          64.1521   88.7287   14.8030 C.ar    1  UNL1        0.0971
      9 N          63.6227   87.9824   13.6144 N.ar    1  UNL1       -0.2079
     10 S          63.2787   86.5230   13.5713 S.O2    1  UNL1        0.0860
     11 O          62.7282   86.6936   12.1865 O.2     1  UNL1       -0.1476
     12 O          63.8292   86.3523   14.9561 O.2     1  UNL1       -0.1476
     13 C          62.9347   85.0635   13.5283 C.ar    1  UNL1        0.1277
     14 C          62.6789   84.3153   14.8029 C.ar    1  UNL1        0.0201
     15 C          62.3349   82.8560   14.7598 C.ar    1  UNL1       -0.0029
     16 C          62.2468   82.1447   13.4420 C.ar    1  UNL1       -0.0224
     17 C          62.5027   82.8929   12.1674 C.ar    1  UNL1       -0.0029
     18 C          62.8466   84.3523   12.2105 C.ar    1  UNL1        0.0201
     19 C          61.9029   80.6854   13.3991 C.3     1  UNL1        0.0224
     20 C          60.7000   80.1762   14.1366 C.3     1  UNL1        0.0047
     21 C          62.7618   79.7351   12.6185 C.3     1  UNL1        0.0047
     22 C          65.5997   93.4648   11.9151 C.3     1  UNL1        0.2525
     23 O          64.3869   92.8191   12.5169 O.3     1  UNL1       -0.4714
     24 C          64.8703   91.2589   15.2796 C.3     1  UNL1        0.1009
     25 N          66.2783   91.7504   15.1181 N.3     1  UNL1       -0.2665
     26 C          67.1215   91.2508   13.9826 C.3     1  UNL1        0.0899
     27 C          68.5295   91.7423   13.8212 C.3     1  UNL1        0.0897
     28 N          69.0942   92.7334   14.7954 N.3     1  UNL1       -0.2691
     29 C          70.5022   93.2248   14.6339 C.3     1  UNL1        0.0897
     30 C          68.2510   93.2329   15.9309 C.3     1  UNL1        0.0897
     31 C          66.8431   92.7414   16.0923 C.3     1  UNL1        0.0899
@<TRIPOS>BOND
     1    22    23    1
     2    23     1    1
     3     1     2   ar
     4     2     3   ar
     5     3     4   ar
     6     4     5   ar
     7     5     6   ar
     8     6     7   ar
     9     7    24    1
    10    24    25    1
    11    25    26    1
    12    26    27    1
    13    27    28    1
    14    28    29    1
    15    28    30    1
    16    30    31    1
    17     7     8   ar
    18     8     9   ar
    19     9    10    1
    20    10    11    2
    21    10    12    2
    22    10    13    1
    23    13    14   ar
    24    14    15   ar
    25    15    16   ar
    26    16    19    1
    27    19    20    1
    28    19    21    1
    29    16    17   ar
    30    17    18   ar
    31     6     1   ar
    32    31    25    1
    33    18    13   ar
    34     9     5   ar
@<TRIPOS>MOLECULE
*****
 31 34 0 0 0
SMALL
GASTEIGER

@<TRIPOS>ATOM
      1 C          64.2538   86.8148   14.5355 C.ar    1  UNL1        0.1399
      2 C          64.6332   88.2460   14.7753 C.ar    1  UNL1        0.0370
      3 C          64.1375   89.3183   13.8510 C.ar    1  UNL1        0.0046
      4 C          63.2624   88.9594   12.6868 C.ar    1  UNL1        0.0191
      5 C          62.8830   87.5282   12.4470 C.ar    1  UNL1        0.0852
      6 C          63.3787   86.4559   13.3714 C.ar    1  UNL1        0.0503
      7 C          62.8429   85.1415   12.8861 C.ar    1  UNL1        0.0172
      8 C          62.0161   85.4015   11.6618 C.ar    1  UNL1        0.0971
      9 N          62.0409   86.8765   11.3905 N.ar    1  UNL1       -0.2079
     10 S          61.3456   87.5770   10.2609 S.O2    1  UNL1        0.0860
     11 O          62.3986   87.0895    9.3105 O.2     1  UNL1       -0.1476
     12 O          60.2926   88.0646   11.2114 O.2     1  UNL1       -0.1476
     13 C          60.6503   88.2775    9.1314 C.ar    1  UNL1        0.1277
     14 C          60.8288   89.7547    8.9414 C.ar    1  UNL1        0.0201
     15 C          60.1335   90.4551    7.8120 C.ar    1  UNL1       -0.0029
     16 C          59.2595   89.6784    6.8723 C.ar    1  UNL1       -0.0224
     17 C          59.0810   88.2012    7.0622 C.ar    1  UNL1       -0.0029
     18 C          59.7764   87.5008    8.1917 C.ar    1  UNL1        0.0201
     19 C          58.5643   90.3789    5.7428 C.3     1  UNL1        0.0224
     20 C          57.0827   90.2270    5.5645 C.3     1  UNL1        0.0047
     21 C          59.3506   91.2314    4.7915 C.3     1  UNL1        0.0047
     22 C          63.8839   85.2660   16.5884 C.3     1  UNL1        0.2525
     23 O          64.7495   85.7424   15.4599 O.3     1  UNL1       -0.4714
     24 C          63.0905   83.8023   13.5147 C.3     1  UNL1        0.1009
     25 N          63.0088   82.5566   12.6829 N.3     1  UNL1       -0.2665
     26 C          62.4639   81.2920   13.2777 C.3     1  UNL1        0.0899
     27 C          62.3822   80.0465   12.4459 C.3     1  UNL1        0.0897
     28 N          62.8453   80.0655   11.0194 N.3     1  UNL1       -0.2691
     29 C          62.7636   78.8200   10.1876 C.3     1  UNL1        0.0897
     30 C          63.3903   81.3302   10.4245 C.3     1  UNL1        0.0897
     31 C          63.4720   82.5757   11.2563 C.3     1  UNL1        0.0899
@<TRIPOS>BOND
     1    22    23    1
     2    23     1    1
     3     1     2   ar
     4     2     3   ar
     5     3     4   ar
     6     4     5   ar
     7     5     6   ar
     8     6     7   ar
     9     7    24    1
    10    24    25    1
    11    25    26    1
    12    26    27    1
    13    27    28    1
    14    28    29    1
    15    28    30    1
    16    30    31    1
    17     7     8   ar
    18     8     9   ar
    19     9    10    1
    20    10    11    2
    21    10    12    2
    22    10    13    1
    23    13    14   ar
    24    14    15   ar
    25    15    16   ar
    26    16    19    1
    27    19    20    1
    28    19    21    1
    29    16    17   ar
    30    17    18   ar
    31     6     1   ar
    32    31    25    1
    33    18    13   ar
    34     9     5   ar
@<TRIPOS>MOLECULE
*****
 31 34 0 0 0
SMALL
GASTEIGER

@<TRIPOS>ATOM
      1 C          63.5214   90.4075   16.2234 C.ar    1  UNL1        0.1399
      2 C          63.3176   89.7008   17.5307 C.ar    1  UNL1        0.0370
      3 C          63.1482   88.2107   17.5593 C.ar    1  UNL1        0.0046
      4 C          63.1825   87.4273   16.2807 C.ar    1  UNL1        0.0191
      5 C          63.3863   88.1340   14.9734 C.ar    1  UNL1        0.0852
      6 C          63.5557   89.6241   14.9448 C.ar    1  UNL1        0.0503
      7 C          63.7388   90.0424   13.5160 C.ar    1  UNL1        0.0172
      8 C          63.6826   88.8109   12.6615 C.ar    1  UNL1        0.0971
      9 N          63.4647   87.6314   13.5623 N.ar    1  UNL1       -0.2079
     10 S          63.3460   86.2005   13.1281 S.O2    1  UNL1        0.0860
     11 O          64.3915   85.8098   14.1302 O.2     1  UNL1       -0.1476
     12 O          62.3005   86.5912   12.1260 O.2     1  UNL1       -0.1476
     13 C          63.2273   84.7696   12.6939 C.ar    1  UNL1        0.1277
     14 C          62.9074   83.7044   13.7004 C.ar    1  UNL1        0.0201
     15 C          62.7887   82.2736   13.2662 C.ar    1  UNL1       -0.0029
     16 C          62.9899   81.9079   11.8254 C.ar    1  UNL1       -0.0224
     17 C          63.3098   82.9731   10.8189 C.ar    1  UNL1       -0.0029
     18 C          63.4285   84.4039   11.2532 C.ar    1  UNL1        0.0201
     19 C          62.8712   80.4771   11.3913 C.3     1  UNL1        0.0224
     20 C          63.0492   80.1142    9.9467 C.3     1  UNL1        0.0047
     21 C          62.5745   79.4089   12.4017 C.3     1  UNL1        0.0047
     22 C          65.0432   92.5033   16.4272 C.3     1  UNL1        0.2525
     23 O          63.6908   91.8977   16.1948 O.3     1  UNL1       -0.4714
     24 C          63.9424   91.4459   13.0274 C.3     1  UNL1        0.1009
     25 N          65.1747   91.7973   12.2475 N.3     1  UNL1       -0.2665
     26 C          66.5288   91.6395   12.8733 C.3     1  UNL1        0.0899
     27 C          67.7609   91.9909   12.0933 C.3     1  UNL1        0.0897
     28 N          67.6391   92.4999   10.6876 N.3     1  UNL1       -0.2691
     29 C          68.8713   92.8511    9.9077 C.3     1  UNL1        0.0897
     30 C          66.2850   92.6576   10.0618 C.3     1  UNL1        0.0897
     31 C          65.0529   92.3063   10.8417 C.3     1  UNL1        0.0899
@<TRIPOS>BOND
     1    22    23    1
     2    23     1    1
     3     1     2   ar
     4     2     3   ar
     5     3     4   ar
     6     4     5   ar
     7     5     6   ar
     8     6     7   ar
     9     7    24    1
    10    24    25    1
    11    25    26    1
    12    26    27    1
    13    27    28    1
    14    28    29    1
    15    28    30    1
    16    30    31    1
    17     7     8   ar
    18     8     9   ar
    19     9    10    1
    20    10    11    2
    21    10    12    2
    22    10    13    1
    23    13    14   ar
    24    14    15   ar
    25    15    16   ar
    26    16    19    1
    27    19    20    1
    28    19    21    1
    29    16    17   ar
    30    17    18   ar
    31     6     1   ar
    32    31    25    1
    33    18    13   ar
    34     9     5   ar
@<TRIPOS>MOLECULE
*****
 31 34 0 0 0
SMALL
GASTEIGER

@<TRIPOS>ATOM
      1 C          60.8635   85.9655    8.1610 C.ar    1  UNL1        0.1399
      2 C          61.7462   84.8616    8.6633 C.ar    1  UNL1        0.0370
      3 C          62.7407   85.1335    9.7528 C.ar    1  UNL1        0.0046
      4 C          62.8526   86.5093   10.3400 C.ar    1  UNL1        0.0191
      5 C          61.9699   87.6131    9.8376 C.ar    1  UNL1        0.0852
      6 C          60.9754   87.3412    8.7482 C.ar    1  UNL1        0.0503
      7 C          60.2448   88.6187    8.4581 C.ar    1  UNL1        0.0172
      8 C          60.7877   89.6802    9.3683 C.ar    1  UNL1        0.0971
      9 N          61.8539   89.0587   10.2209 N.ar    1  UNL1       -0.2079
     10 S          62.6622   89.7597   11.2722 S.O2    1  UNL1        0.0860
     11 O          61.9801   88.9513   12.3357 O.2     1  UNL1       -0.1476
     12 O          63.3445   90.5680   10.2086 O.2     1  UNL1       -0.1476
     13 C          63.4706   90.4607   12.3235 C.ar    1  UNL1        0.1277
     14 C          64.3977   91.5750   11.9378 C.ar    1  UNL1        0.0201
     15 C          65.2060   92.2759   12.9890 C.ar    1  UNL1       -0.0029
     16 C          65.0873   91.8626   14.4261 C.ar    1  UNL1       -0.0224
     17 C          64.1602   90.7483   14.8118 C.ar    1  UNL1       -0.0029
     18 C          63.3519   90.0474   13.7605 C.ar    1  UNL1        0.0201
     19 C          65.8957   92.5636   15.4773 C.3     1  UNL1        0.0224
     20 C          65.4083   92.6043   16.8953 C.3     1  UNL1        0.0047
     21 C          67.1916   93.2241   15.1104 C.3     1  UNL1        0.0047
     22 C          60.1549   84.6425    6.0402 C.3     1  UNL1        0.2525
     23 O          59.8690   85.6935    7.0715 O.3     1  UNL1       -0.4714
     24 C          59.1614   88.8025    7.4370 C.3     1  UNL1        0.1009
     25 N          59.3026   89.8516    6.3741 N.3     1  UNL1       -0.2665
     26 C          60.6562   90.1740    5.8137 C.3     1  UNL1        0.0899
     27 C          60.7973   91.2230    4.7509 C.3     1  UNL1        0.0897
     28 N          59.5850   91.9495    4.2485 N.3     1  UNL1       -0.2691
     29 C          59.7263   92.9985    3.1856 C.3     1  UNL1        0.0897
     30 C          58.2315   91.6271    4.8089 C.3     1  UNL1        0.0897
     31 C          58.0904   90.5781    5.8717 C.3     1  UNL1        0.0899
@<TRIPOS>BOND
     1    22    23    1
     2    23     1    1
     3     1     2   ar
     4     2     3   ar
     5     3     4   ar
     6     4     5   ar
     7     5     6   ar
     8     6     7   ar
     9     7    24    1
    10    24    25    1
    11    25    26    1
    12    26    27    1
    13    27    28    1
    14    28    29    1
    15    28    30    1
    16    30    31    1
    17     7     8   ar
    18     8     9   ar
    19     9    10    1
    20    10    11    2
    21    10    12    2
    22    10    13    1
    23    13    14   ar
    24    14    15   ar
    25    15    16   ar
    26    16    19    1
    27    19    20    1
    28    19    21    1
    29    16    17   ar
    30    17    18   ar
    31     6     1   ar
    32    31    25    1
    33    18    13   ar
    34     9     5   ar
