@<TRIPOS>MOLECULE
*****
 24 26 0 0 0
SMALL
GASTEIGER

@<TRIPOS>ATOM
      1 C          63.4441   88.9985   12.4563 C.2     1  UNL1       -0.0246
      2 C          63.4202   90.2599   11.6449 C.2     1  UNL1       -0.0421
      3 C          62.6799   89.9777   10.3712 C.3     1  UNL1        0.0480
      4 C          62.2462   88.5420   10.3954 C.ar    1  UNL1       -0.0184
      5 C          61.4822   87.7075    9.4105 C.ar    1  UNL1       -0.0040
      6 C          61.1906   86.2679    9.7143 C.ar    1  UNL1       -0.0003
      7 C          61.6629   85.6627   11.0029 C.ar    1  UNL1       -0.0000
      8 C          62.4268   86.4971   11.9878 C.ar    1  UNL1       -0.0006
      9 C          62.7185   87.9368   11.6841 C.ar    1  UNL1       -0.0079
     10 C          64.3602   87.4531   14.3333 C.3     1  UNL1        0.0111
     11 C          64.0816   88.8286   13.8034 C.3     1  UNL1        0.0634
     12 C          64.4405   90.0340   14.6207 C.ar    1  UNL1        0.0818
     13 C          63.4802   90.5572   15.6474 C.ar    1  UNL1        0.1139
     14 N          63.8392   91.7626   16.4646 N.ar    1  UNL1       -0.2394
     15 C          65.1586   92.4449   16.2554 C.ar    1  UNL1        0.1195
     16 C          66.1190   91.9217   15.2287 C.ar    1  UNL1        0.1191
     17 N          65.7599   90.7163   14.4114 N.ar    1  UNL1       -0.2446
     18 C          64.0297   91.5728   12.0382 C.3     1  UNL1        0.0394
     19 C          64.7230   92.4160   11.0094 C.3     1  UNL1        0.0766
     20 N          66.0906   92.9656   11.2880 N.3     1  UNL1       -0.2688
     21 C          66.2573   94.1190   12.2324 C.3     1  UNL1        0.0897
     22 C          67.2914   92.3618   10.6221 C.3     1  UNL1        0.1107
     23 C          67.9027   93.0319    9.4274 C.3     1  UNL1        0.2105
     24 F          68.8231   92.2638    8.5259 F       1  UNL1       -0.2328
@<TRIPOS>BOND
     1    11    10    1
     2    11     1    1
     3     1     2    2
     4     2    18    1
     5    18    19    1
     6    19    20    1
     7    20    21    1
     8    20    22    1
     9    22    23    1
    10    23    24    1
    11     2     3    1
    12     3     4    1
    13     4     5   ar
    14     5     6   ar
    15     6     7   ar
    16     7     8   ar
    17     8     9   ar
    18    11    12    1
    19    12    13   ar
    20    13    14   ar
    21    14    15   ar
    22    15    16   ar
    23    16    17   ar
    24     9     1    1
    25    17    12   ar
    26     9     4   ar
@<TRIPOS>MOLECULE
*****
 24 26 0 0 0
SMALL
GASTEIGER

@<TRIPOS>ATOM
      1 C          63.7170   89.0755   13.5592 C.2     1  UNL1       -0.0246
      2 C          63.9115   87.6127   13.8281 C.2     1  UNL1       -0.0421
      3 C          63.3154   86.8479   12.6836 C.3     1  UNL1        0.0480
      4 C          62.7526   87.8380   11.7074 C.ar    1  UNL1       -0.0184
      5 C          62.0462   87.6638   10.3957 C.ar    1  UNL1       -0.0040
      6 C          61.5881   88.8664    9.6251 C.ar    1  UNL1       -0.0003
      7 C          61.8363   90.2431   10.1663 C.ar    1  UNL1       -0.0000
      8 C          62.5427   90.4174   11.4780 C.ar    1  UNL1       -0.0006
      9 C          63.0008   89.2148   12.2485 C.ar    1  UNL1       -0.0079
     10 C          63.5839   90.3441   15.8226 C.3     1  UNL1        0.0111
     11 C          64.1609   90.2015   14.4453 C.3     1  UNL1        0.0634
     12 C          65.1816   91.1848   13.9543 C.ar    1  UNL1        0.0818
     13 C          66.5803   91.1468   14.4947 C.ar    1  UNL1        0.1139
     14 N          67.6010   92.1302   14.0036 N.ar    1  UNL1       -0.2394
     15 C          67.2230   93.1515   12.9722 C.ar    1  UNL1        0.1195
     16 C          65.8243   93.1895   12.4317 C.ar    1  UNL1        0.1191
     17 N          64.8036   92.2062   12.9228 N.ar    1  UNL1       -0.2446
     18 C          64.5839   87.0189   15.0303 C.3     1  UNL1        0.0394
     19 C          64.2999   85.5997   15.4239 C.3     1  UNL1        0.0766
     20 N          62.8912   85.1661   15.7024 N.3     1  UNL1       -0.2688
     21 C          62.2766   84.0550   14.9037 C.3     1  UNL1        0.0897
     22 C          62.0970   85.8436   16.7796 C.3     1  UNL1        0.1107
     23 C          62.7995   86.4744   17.9452 C.3     1  UNL1        0.2105
     24 F          63.0876   87.9464   17.9402 F       1  UNL1       -0.2328
@<TRIPOS>BOND
     1    11    10    1
     2    11     1    1
     3     1     2    2
     4     2    18    1
     5    18    19    1
     6    19    20    1
     7    20    21    1
     8    20    22    1
     9    22    23    1
    10    23    24    1
    11     2     3    1
    12     3     4    1
    13     4     5   ar
    14     5     6   ar
    15     6     7   ar
    16     7     8   ar
    17     8     9   ar
    18    11    12    1
    19    12    13   ar
    20    13    14   ar
    21    14    15   ar
    22    15    16   ar
    23    16    17   ar
    24     9     1    1
    25    17    12   ar
    26     9     4   ar
@<TRIPOS>MOLECULE
*****
 24 26 0 0 0
SMALL
GASTEIGER

@<TRIPOS>ATOM
      1 C          63.8082   90.7610   13.3499 C.2     1  UNL1       -0.0246
      2 C          64.7910   91.5538   12.5403 C.2     1  UNL1       -0.0421
      3 C          64.2806   91.6248   11.1316 C.3     1  UNL1        0.0480
      4 C          62.9824   90.8758   11.0706 C.ar    1  UNL1       -0.0184
      5 C          62.0284   90.6109    9.9438 C.ar    1  UNL1       -0.0040
      6 C          60.7825   89.8122   10.1881 C.ar    1  UNL1       -0.0003
      7 C          60.4906   89.2783   11.5592 C.ar    1  UNL1       -0.0000
      8 C          61.4445   89.5432   12.6860 C.ar    1  UNL1       -0.0006
      9 C          62.6904   90.3419   12.4417 C.ar    1  UNL1       -0.0079
     10 C          64.1603   91.5441   15.8021 C.3     1  UNL1        0.0111
     11 C          63.9231   90.4430   14.8114 C.3     1  UNL1        0.0634
     12 C          63.8007   89.0241   15.2821 C.ar    1  UNL1        0.0818
     13 C          63.1035   88.7203   16.5750 C.ar    1  UNL1        0.1139
     14 N          62.9812   87.3013   17.0457 N.ar    1  UNL1       -0.2394
     15 C          63.5561   86.1862   16.2236 C.ar    1  UNL1        0.1195
     16 C          64.2533   86.4900   14.9307 C.ar    1  UNL1        0.1191
     17 N          64.3756   87.9089   14.4599 N.ar    1  UNL1       -0.2446
     18 C          66.0611   92.1679   13.0498 C.3     1  UNL1        0.0394
     19 C          66.4291   93.5672   12.6541 C.3     1  UNL1        0.0766
     20 N          66.8585   93.8604   11.2471 N.3     1  UNL1       -0.2688
     21 C          66.6501   95.2288   10.6691 C.3     1  UNL1        0.0897
     22 C          67.4963   92.7852   10.4181 C.3     1  UNL1        0.1107
     23 C          68.2614   93.1475    9.1798 C.3     1  UNL1        0.2105
     24 F          69.2213   92.1651    8.5770 F       1  UNL1       -0.2328
@<TRIPOS>BOND
     1    11    10    1
     2    11     1    1
     3     1     2    2
     4     2    18    1
     5    18    19    1
     6    19    20    1
     7    20    21    1
     8    20    22    1
     9    22    23    1
    10    23    24    1
    11     2     3    1
    12     3     4    1
    13     4     5   ar
    14     5     6   ar
    15     6     7   ar
    16     7     8   ar
    17     8     9   ar
    18    11    12    1
    19    12    13   ar
    20    13    14   ar
    21    14    15   ar
    22    15    16   ar
    23    16    17   ar
    24     9     1    1
    25    17    12   ar
    26     9     4   ar
@<TRIPOS>MOLECULE
*****
 24 26 0 0 0
SMALL
GASTEIGER

@<TRIPOS>ATOM
      1 C          61.4212   88.1248   10.8633 C.2     1  UNL1       -0.0246
      2 C          62.2048   86.9005   11.2334 C.2     1  UNL1       -0.0421
      3 C          61.9782   85.8664   10.1707 C.3     1  UNL1        0.0480
      4 C          61.0546   86.4516    9.1438 C.ar    1  UNL1       -0.0184
      5 C          60.4826   85.8939    7.8743 C.ar    1  UNL1       -0.0040
      6 C          59.5664   86.7319    7.0329 C.ar    1  UNL1       -0.0003
      7 C          59.2221   88.1277    7.4609 C.ar    1  UNL1       -0.0000
      8 C          59.7941   88.6854    8.7304 C.ar    1  UNL1       -0.0006
      9 C          60.7104   87.8474    9.5719 C.ar    1  UNL1       -0.0079
     10 C          60.0821   89.8072   12.3215 C.3     1  UNL1        0.0111
     11 C          61.3593   89.4023   11.6470 C.3     1  UNL1        0.0634
     12 C          62.5744   90.2748   11.7563 C.ar    1  UNL1        0.0818
     13 C          63.0759   91.0166   10.5528 C.ar    1  UNL1        0.1139
     14 N          64.2910   91.8892   10.6621 N.ar    1  UNL1       -0.2394
     15 C          65.0048   92.0200   11.9749 C.ar    1  UNL1        0.1195
     16 C          64.5034   91.2783   13.1784 C.ar    1  UNL1        0.1191
     17 N          63.2882   90.4057   13.0691 N.ar    1  UNL1       -0.2446
     18 C          63.0641   86.7386   12.4522 C.3     1  UNL1        0.0394
     19 C          63.3702   85.3673   12.9773 C.3     1  UNL1        0.0766
     20 N          63.2335   85.0776   14.4427 N.3     1  UNL1       -0.2688
     21 C          64.0665   85.8308   15.4371 C.3     1  UNL1        0.0897
     22 C          62.2638   84.0346   14.9137 C.3     1  UNL1        0.1107
     23 C          62.4698   82.5962   14.5411 C.3     1  UNL1        0.2105
     24 F          61.3063   81.6496   14.5329 F       1  UNL1       -0.2328
@<TRIPOS>BOND
     1    11    10    1
     2    11     1    1
     3     1     2    2
     4     2    18    1
     5    18    19    1
     6    19    20    1
     7    20    21    1
     8    20    22    1
     9    22    23    1
    10    23    24    1
    11     2     3    1
    12     3     4    1
    13     4     5   ar
    14     5     6   ar
    15     6     7   ar
    16     7     8   ar
    17     8     9   ar
    18    11    12    1
    19    12    13   ar
    20    13    14   ar
    21    14    15   ar
    22    15    16   ar
    23    16    17   ar
    24     9     1    1
    25    17    12   ar
    26     9     4   ar
@<TRIPOS>MOLECULE
*****
 24 26 0 0 0
SMALL
GASTEIGER

@<TRIPOS>ATOM
      1 C          61.4914   88.1799   10.9578 C.2     1  UNL1       -0.0246
      2 C          62.2944   86.9770   11.3554 C.2     1  UNL1       -0.0421
      3 C          62.0970   85.9211   10.3084 C.3     1  UNL1        0.0480
      4 C          61.1719   86.4715    9.2638 C.ar    1  UNL1       -0.0184
      5 C          60.6219   85.8818    7.9989 C.ar    1  UNL1       -0.0040
      6 C          59.6977   86.6882    7.1355 C.ar    1  UNL1       -0.0003
      7 C          59.3235   88.0842    7.5368 C.ar    1  UNL1       -0.0000
      8 C          59.8734   88.6738    8.8017 C.ar    1  UNL1       -0.0006
      9 C          60.7976   87.8675    9.6651 C.ar    1  UNL1       -0.0079
     10 C          60.0989   89.8766   12.3480 C.3     1  UNL1        0.0111
     11 C          61.3984   89.4689   11.7193 C.3     1  UNL1        0.0634
     12 C          62.6048   90.3503   11.8520 C.ar    1  UNL1        0.0818
     13 C          63.2355   90.5609   13.1966 C.ar    1  UNL1        0.1139
     14 N          64.4419   91.4423   13.3293 N.ar    1  UNL1       -0.2394
     15 C          65.0177   92.1132   12.1175 C.ar    1  UNL1        0.1195
     16 C          64.3869   91.9026   10.7729 C.ar    1  UNL1        0.1191
     17 N          63.1805   91.0212   10.6402 N.ar    1  UNL1       -0.2446
     18 C          63.1456   86.8518   12.5842 C.3     1  UNL1        0.0394
     19 C          63.4934   85.4950   13.1207 C.3     1  UNL1        0.0766
     20 N          63.2292   85.1673   14.5604 N.3     1  UNL1       -0.2688
     21 C          62.2994   84.0450   14.9157 C.3     1  UNL1        0.0897
     22 C          63.8946   85.9618   15.6448 C.3     1  UNL1        0.1107
     23 C          63.1313   86.3265   16.8834 C.3     1  UNL1        0.2105
     24 F          63.2018   87.7240   17.4237 F       1  UNL1       -0.2328
@<TRIPOS>BOND
     1    11    10    1
     2    11     1    1
     3     1     2    2
     4     2    18    1
     5    18    19    1
     6    19    20    1
     7    20    21    1
     8    20    22    1
     9    22    23    1
    10    23    24    1
    11     2     3    1
    12     3     4    1
    13     4     5   ar
    14     5     6   ar
    15     6     7   ar
    16     7     8   ar
    17     8     9   ar
    18    11    12    1
    19    12    13   ar
    20    13    14   ar
    21    14    15   ar
    22    15    16   ar
    23    16    17   ar
    24     9     1    1
    25    17    12   ar
    26     9     4   ar
@<TRIPOS>MOLECULE
*****
 24 26 0 0 0
SMALL
GASTEIGER

@<TRIPOS>ATOM
      1 C          63.7986   90.6244   13.6927 C.2     1  UNL1       -0.0246
      2 C          62.7586   90.3629   12.6439 C.2     1  UNL1       -0.0421
      3 C          63.2181   91.0007   11.3664 C.3     1  UNL1        0.0480
      4 C          64.5421   91.6563   11.6256 C.ar    1  UNL1       -0.0184
      5 C          65.4673   92.4351   10.7382 C.ar    1  UNL1       -0.0040
      6 C          66.7513   92.9812   11.2886 C.ar    1  UNL1       -0.0003
      7 C          67.1101   92.7487   12.7263 C.ar    1  UNL1       -0.0000
      8 C          66.1849   91.9700   13.6137 C.ar    1  UNL1       -0.0006
      9 C          64.9009   91.4238   13.0633 C.ar    1  UNL1       -0.0079
     10 C          63.7235   91.1752   16.2307 C.3     1  UNL1        0.0111
     11 C          63.7457   90.1669   15.1202 C.3     1  UNL1        0.0634
     12 C          63.7150   88.7012   15.4374 C.ar    1  UNL1        0.0818
     13 C          63.0655   88.2207   16.7013 C.ar    1  UNL1        0.1139
     14 N          63.0348   86.7550   17.0185 N.ar    1  UNL1       -0.2394
     15 C          63.6536   85.7696   16.0718 C.ar    1  UNL1        0.1195
     16 C          64.3030   86.2500   14.8079 C.ar    1  UNL1        0.1191
     17 N          64.3337   87.7158   14.4907 N.ar    1  UNL1       -0.2446
     18 C          61.4830   89.5980   12.8385 C.3     1  UNL1        0.0394
     19 C          60.4076   89.6549   11.7944 C.3     1  UNL1        0.0766
     20 N          60.4540   88.7250   10.6184 N.3     1  UNL1       -0.2688
     21 C          60.2142   89.2528    9.2349 C.3     1  UNL1        0.0897
     22 C          60.7402   87.2672   10.8258 C.3     1  UNL1        0.1107
     23 C          62.0804   86.7057   10.4538 C.3     1  UNL1        0.2105
     24 F          62.5723   86.8121    9.0408 F       1  UNL1       -0.2328
@<TRIPOS>BOND
     1    11    10    1
     2    11     1    1
     3     1     2    2
     4     2    18    1
     5    18    19    1
     6    19    20    1
     7    20    21    1
     8    20    22    1
     9    22    23    1
    10    23    24    1
    11     2     3    1
    12     3     4    1
    13     4     5   ar
    14     5     6   ar
    15     6     7   ar
    16     7     8   ar
    17     8     9   ar
    18    11    12    1
    19    12    13   ar
    20    13    14   ar
    21    14    15   ar
    22    15    16   ar
    23    16    17   ar
    24     9     1    1
    25    17    12   ar
    26     9     4   ar
@<TRIPOS>MOLECULE
*****
 24 26 0 0 0
SMALL
GASTEIGER

@<TRIPOS>ATOM
      1 C          62.9239   85.4616   12.0343 C.2     1  UNL1       -0.0246
      2 C          63.4746   86.1871   13.2261 C.2     1  UNL1       -0.0421
      3 C          63.8367   85.1661   14.2636 C.3     1  UNL1        0.0480
      4 C          63.5099   83.8096   13.7131 C.ar    1  UNL1       -0.0184
      5 C          63.6531   82.4318   14.2883 C.ar    1  UNL1       -0.0040
      6 C          63.2322   81.2365   13.4858 C.ar    1  UNL1       -0.0003
      7 C          62.6680   81.4191   12.1079 C.ar    1  UNL1       -0.0000
      8 C          62.5248   82.7970   11.5327 C.ar    1  UNL1       -0.0006
      9 C          62.9458   83.9922   12.3352 C.ar    1  UNL1       -0.0079
     10 C          62.6820   85.4185    9.4478 C.3     1  UNL1        0.0111
     11 C          62.4370   86.0943   10.7644 C.3     1  UNL1        0.0634
     12 C          61.7051   87.4027   10.8111 C.ar    1  UNL1        0.0818
     13 C          62.2491   88.5930   10.0782 C.ar    1  UNL1        0.1139
     14 N          61.5171   89.9014   10.1249 N.ar    1  UNL1       -0.2394
     15 C          60.2411   90.0196   10.9044 C.ar    1  UNL1        0.1195
     16 C          59.6969   88.8293   11.6373 C.ar    1  UNL1        0.1191
     17 N          60.4289   87.5208   11.5906 N.ar    1  UNL1       -0.2446
     18 C          63.6349   87.6727   13.3573 C.3     1  UNL1        0.0394
     19 C          64.3212   88.2497   14.5599 C.3     1  UNL1        0.0766
     20 N          63.7032   89.4017   15.2953 N.3     1  UNL1       -0.2688
     21 C          63.8793   90.8002   14.7823 C.3     1  UNL1        0.0897
     22 C          62.9090   89.1552   16.5437 C.3     1  UNL1        0.1107
     23 C          63.0511   87.8553   17.2787 C.3     1  UNL1        0.2105
     24 F          62.0006   86.7943   17.1359 F       1  UNL1       -0.2328
@<TRIPOS>BOND
     1    11    10    1
     2    11     1    1
     3     1     2    2
     4     2    18    1
     5    18    19    1
     6    19    20    1
     7    20    21    1
     8    20    22    1
     9    22    23    1
    10    23    24    1
    11     2     3    1
    12     3     4    1
    13     4     5   ar
    14     5     6   ar
    15     6     7   ar
    16     7     8   ar
    17     8     9   ar
    18    11    12    1
    19    12    13   ar
    20    13    14   ar
    21    14    15   ar
    22    15    16   ar
    23    16    17   ar
    24     9     1    1
    25    17    12   ar
    26     9     4   ar
@<TRIPOS>MOLECULE
*****
 24 26 0 0 0
SMALL
GASTEIGER

@<TRIPOS>ATOM
      1 C          63.5263   87.1386   13.1065 C.2     1  UNL1       -0.0246
      2 C          63.7000   88.6190   13.2742 C.2     1  UNL1       -0.0421
      3 C          63.0408   89.2978   12.1103 C.3     1  UNL1        0.0480
      4 C          62.4597   88.2368   11.2232 C.ar    1  UNL1       -0.0184
      5 C          61.6962   88.3135    9.9344 C.ar    1  UNL1       -0.0040
      6 C          61.2327   87.0557    9.2614 C.ar    1  UNL1       -0.0003
      7 C          61.5327   85.7213    9.8771 C.ar    1  UNL1       -0.0000
      8 C          62.2963   85.6446   11.1659 C.ar    1  UNL1       -0.0006
      9 C          62.7598   86.9024   11.8390 C.ar    1  UNL1       -0.0079
     10 C          64.9285   86.4544   15.1840 C.3     1  UNL1        0.0111
     11 C          64.0306   86.0801   14.0421 C.3     1  UNL1        0.0634
     12 C          63.6371   84.6475   13.8359 C.ar    1  UNL1        0.0818
     13 C          62.4415   84.0880   14.5483 C.ar    1  UNL1        0.1139
     14 N          62.0481   82.6553   14.3420 N.ar    1  UNL1       -0.2394
     15 C          62.8502   81.7820   13.4235 C.ar    1  UNL1        0.1195
     16 C          64.0459   82.3414   12.7111 C.ar    1  UNL1        0.1191
     17 N          64.4393   83.7741   12.9173 N.ar    1  UNL1       -0.2446
     18 C          64.4085   89.3009   14.4069 C.3     1  UNL1        0.0394
     19 C          64.1514   90.7519   14.6874 C.3     1  UNL1        0.0766
     20 N          65.1867   91.7787   14.3354 N.3     1  UNL1       -0.2688
     21 C          65.3535   92.2177   12.9108 C.3     1  UNL1        0.0897
     22 C          66.0551   92.3664   15.4080 C.3     1  UNL1        0.1107
     23 C          67.5241   92.0642   15.4330 C.3     1  UNL1        0.2105
     24 F          68.2779   92.1135   16.7289 F       1  UNL1       -0.2328
@<TRIPOS>BOND
     1    11    10    1
     2    11     1    1
     3     1     2    2
     4     2    18    1
     5    18    19    1
     6    19    20    1
     7    20    21    1
     8    20    22    1
     9    22    23    1
    10    23    24    1
    11     2     3    1
    12     3     4    1
    13     4     5   ar
    14     5     6   ar
    15     6     7   ar
    16     7     8   ar
    17     8     9   ar
    18    11    12    1
    19    12    13   ar
    20    13    14   ar
    21    14    15   ar
    22    15    16   ar
    23    16    17   ar
    24     9     1    1
    25    17    12   ar
    26     9     4   ar
@<TRIPOS>MOLECULE
*****
 24 26 0 0 0
SMALL
GASTEIGER

@<TRIPOS>ATOM
      1 C          63.4612   90.0585   12.7144 C.2     1  UNL1       -0.0246
      2 C          64.0444   89.6783   14.0430 C.2     1  UNL1       -0.0421
      3 C          65.2526   90.5347   14.2811 C.3     1  UNL1        0.0480
      4 C          65.4162   91.4442   13.0995 C.ar    1  UNL1       -0.0184
      5 C          66.4303   92.5024   12.7803 C.ar    1  UNL1       -0.0040
      6 C          66.3372   93.2662   11.4927 C.ar    1  UNL1       -0.0003
      7 C          65.2300   92.9719   10.5244 C.ar    1  UNL1       -0.0000
      8 C          64.2160   91.9137   10.8437 C.ar    1  UNL1       -0.0006
      9 C          64.3091   91.1499   12.1312 C.ar    1  UNL1       -0.0079
     10 C          60.9281   90.1707   12.1477 C.3     1  UNL1        0.0111
     11 C          62.2439   89.4536   12.0801 C.3     1  UNL1        0.0634
     12 C          62.3423   88.1316   11.3783 C.ar    1  UNL1        0.0818
     13 C          62.1723   88.0581    9.8898 C.ar    1  UNL1        0.1139
     14 N          62.2707   86.7361    9.1880 N.ar    1  UNL1       -0.2394
     15 C          62.5391   85.4875    9.9747 C.ar    1  UNL1        0.1195
     16 C          62.7092   85.5609   11.4633 C.ar    1  UNL1        0.1191
     17 N          62.6108   86.8829   12.1650 N.ar    1  UNL1       -0.2446
     18 C          63.5126   88.6263   14.9708 C.3     1  UNL1        0.0394
     19 C          64.2594   87.3379   15.1505 C.3     1  UNL1        0.0766
     20 N          63.6014   86.1796   15.8399 N.3     1  UNL1       -0.2688
     21 C          62.9749   86.3677   17.1898 C.3     1  UNL1        0.0897
     22 C          63.5698   84.8332   15.1795 C.3     1  UNL1        0.1107
     23 C          62.2726   84.0910   15.0510 C.3     1  UNL1        0.2105
     24 F          62.2724   82.5954   14.9375 F       1  UNL1       -0.2328
@<TRIPOS>BOND
     1    11    10    1
     2    11     1    1
     3     1     2    2
     4     2    18    1
     5    18    19    1
     6    19    20    1
     7    20    21    1
     8    20    22    1
     9    22    23    1
    10    23    24    1
    11     2     3    1
    12     3     4    1
    13     4     5   ar
    14     5     6   ar
    15     6     7   ar
    16     7     8   ar
    17     8     9   ar
    18    11    12    1
    19    12    13   ar
    20    13    14   ar
    21    14    15   ar
    22    15    16   ar
    23    16    17   ar
    24     9     1    1
    25    17    12   ar
    26     9     4   ar
