@<TRIPOS>MOLECULE
*****
 46 49 0 0 0
SMALL
GASTEIGER

@<TRIPOS>ATOM
      1 N          61.9504   89.3144   10.8331 N.pl3   1  UNL1       -0.3043
      2 C          63.3048   89.7649   10.3722 C.3     1  UNL1        0.1123
      3 C          64.2149   90.4924   11.3170 C.3     1  UNL1        0.1149
      4 N          63.7704   90.7694   12.7226 N.am    1  UNL1       -0.2747
      5 C          64.6804   91.4969   13.6674 C.2     1  UNL1        0.2442
      6 O          64.2360   91.7739   15.0729 O.2     1  UNL1       -0.2731
      7 C          62.4159   90.3189   13.1835 C.3     1  UNL1        0.1149
      8 C          61.5059   89.5913   12.2387 C.3     1  UNL1        0.1123
      9 C          61.0690   87.0885    9.8237 C.ar    1  UNL1        0.0111
     10 C          60.1590   86.3610    8.8789 C.ar    1  UNL1        0.0282
     11 C          59.2203   87.1319    7.9988 C.ar    1  UNL1        0.1400
     12 F          58.3103   86.4043    7.0540 F       1  UNL1       -0.2042
     13 C          59.1917   88.6302    8.0634 C.ar    1  UNL1        0.0309
     14 C          60.1017   89.3576    9.0081 C.ar    1  UNL1        0.0166
     15 C          61.0403   88.5868    9.8883 C.ar    1  UNL1        0.0456
     16 C          62.0077   86.3177   10.7039 C.3     1  UNL1        0.0953
     17 N          62.7814   87.0252   11.7765 N.am    1  UNL1       -0.3022
     18 C          63.0836   86.3259   13.0687 C.2     1  UNL1        0.2227
     19 O          63.8574   87.0335   14.1413 O.2     1  UNL1       -0.2751
     20 H          63.0909   87.9487   11.6325 H       1  UNL1        0.1497
     21 C          62.6121   84.9190   13.2881 C.3     1  UNL1        0.0865
     22 C          63.4962   83.9329   13.9925 C.3     1  UNL1        0.0264
     23 C          64.9684   83.9076   13.7064 C.3     1  UNL1        0.0656
     24 N          65.9137   84.6898   14.5691 N.3     1  UNL1       -0.3211
     25 H          65.7343   85.6871   14.4525 H       1  UNL1        0.1189
     26 H          66.8743   84.4828   14.2955 H       1  UNL1        0.1189
     27 C          62.1726   84.8393   10.5114 C.3     1  UNL1        0.0242
     28 C          64.1795   83.2534   10.0562 C.3     1  UNL1        0.0001
     29 C          63.2318   84.3168    9.5865 C.3     1  UNL1        0.0020
     30 C          63.3431   84.8580    8.1920 C.3     1  UNL1        0.0001
     31 C          66.0349   91.9475   13.2065 C.3     1  UNL1        0.1564
     32 N          67.0217   92.4908   14.1969 N.am    1  UNL1       -0.2727
     33 C          66.6883   93.2233   15.4627 C.3     1  UNL1        0.0943
     34 C          67.9757   93.5823   16.1435 C.3     1  UNL1        0.0311
     35 C          69.1050   93.0716   15.2984 C.3     1  UNL1        0.0870
     36 C          68.5153   92.3970   14.0954 C.2     1  UNL1        0.2260
     37 O          69.2844   91.7435   12.9857 O.2     1  UNL1       -0.2749
     38 C          66.4025   91.8548   11.7552 C.3     1  UNL1        0.0564
     39 C          66.6256   93.1048   10.9567 C.ar    1  UNL1       -0.0094
     40 C          65.8793   94.3590   11.3027 C.ar    1  UNL1       -0.0025
     41 C          66.1024   95.6090   10.5042 C.ar    1  UNL1        0.0111
     42 C          67.0718   95.6048    9.3595 C.ar    1  UNL1        0.0585
     43 CL         67.2949   96.8548    8.5610 Cl      1  UNL1       -0.0822
     44 C          67.8182   94.3505    9.0134 C.ar    1  UNL1        0.0225
     45 C          67.5951   93.1005    9.8120 C.ar    1  UNL1        0.0546
     46 CL         68.3414   91.8462    9.4659 Cl      1  UNL1       -0.0825
@<TRIPOS>BOND
     1    28    29    1
     2    29    30    1
     3    29    27    1
     4    16    27    1
     5    16    17    1
     6    17    18   am
     7    18    19    2
     8    18    21    1
     9    21    22    1
    10    22    23    1
    11    23    24    1
    12    16     9    1
    13     9    10   ar
    14    10    11   ar
    15    11    12    1
    16    11    13   ar
    17    13    14   ar
    18    14    15   ar
    19    15     1    1
    20     1     2    1
    21     2     3    1
    22     3     4    1
    23     4     5   am
    24     5     6    2
    25     5    31    1
    26    31    38    1
    27    38    39    1
    28    39    40   ar
    29    40    41   ar
    30    41    42   ar
    31    42    43    1
    32    42    44   ar
    33    44    45   ar
    34    45    46    1
    35    31    32    1
    36    32    33    1
    37    33    34    1
    38    34    35    1
    39    35    36    1
    40    36    37    2
    41     4     7    1
    42     7     8    1
    43    15     9   ar
    44     8     1    1
    45    45    39   ar
    46    36    32   am
    47    17    20    1
    48    24    25    1
    49    24    26    1
@<TRIPOS>MOLECULE
*****
 46 49 0 0 0
SMALL
GASTEIGER

@<TRIPOS>ATOM
      1 N          62.0047   89.3828   11.0592 N.pl3   1  UNL1       -0.3043
      2 C          63.1946   90.1870   10.6262 C.3     1  UNL1        0.1123
      3 C          63.9942   90.9492   11.6409 C.3     1  UNL1        0.1149
      4 N          63.6040   90.9072   13.0887 N.am    1  UNL1       -0.2747
      5 C          64.4036   91.6694   14.1033 C.2     1  UNL1        0.2442
      6 O          64.0133   91.6275   15.5510 O.2     1  UNL1       -0.2731
      7 C          62.4141   90.1031   13.5217 C.3     1  UNL1        0.1149
      8 C          61.6145   89.3409   12.5069 C.3     1  UNL1        0.1123
      9 C          61.2962   87.1245    9.9878 C.ar    1  UNL1        0.0111
     10 C          60.4966   86.3624    8.9730 C.ar    1  UNL1        0.0282
     11 C          59.6059   87.0964    8.0150 C.ar    1  UNL1        0.1400
     12 F          58.8062   86.3341    7.0002 F       1  UNL1       -0.2042
     13 C          59.5148   88.5925    8.0717 C.ar    1  UNL1        0.0309
     14 C          60.3144   89.3546    9.0864 C.ar    1  UNL1        0.0166
     15 C          61.2051   88.6206   10.0444 C.ar    1  UNL1        0.0456
     16 C          62.1869   86.3905   10.9458 C.3     1  UNL1        0.0953
     17 N          62.8840   87.1373   12.0441 N.am    1  UNL1       -0.3022
     18 C          63.4004   86.3985   13.2431 C.2     1  UNL1        0.2227
     19 O          64.0975   87.1454   14.3414 O.2     1  UNL1       -0.2751
     20 H          63.0026   88.1124   11.9781 H       1  UNL1        0.1497
     21 C          63.2197   84.9128   13.3437 C.3     1  UNL1        0.0865
     22 C          63.6150   84.1925   14.5987 C.3     1  UNL1        0.0264
     23 C          62.6491   84.0924   15.7419 C.3     1  UNL1        0.0656
     24 N          62.0891   85.3382   16.3619 N.3     1  UNL1       -0.3211
     25 H          62.8392   85.8582   16.8173 H       1  UNL1        0.1189
     26 H          61.3822   85.0860   17.0527 H       1  UNL1        0.1189
     27 C          62.3805   84.9097   10.8056 C.3     1  UNL1        0.0242
     28 C          63.3881   84.9691    8.4116 C.3     1  UNL1        0.0001
     29 C          63.3413   84.3721    9.7868 C.3     1  UNL1        0.0020
     30 C          64.2553   83.2373   10.1433 C.3     1  UNL1        0.0001
     31 C          65.5935   92.4736   13.6703 C.3     1  UNL1        0.1564
     32 N          66.8890   92.3581   14.4175 N.am    1  UNL1       -0.2727
     33 C          68.2127   91.9650   13.8317 C.3     1  UNL1        0.0943
     34 C          69.2300   91.9793   14.9339 C.3     1  UNL1        0.0311
     35 C          68.5350   92.3813   16.2009 C.3     1  UNL1        0.0870
     36 C          67.0882   92.6154   15.8818 C.2     1  UNL1        0.2260
     37 O          66.0269   93.0334   16.8559 O.2     1  UNL1       -0.2749
     38 C          65.4879   93.3933   12.4901 C.3     1  UNL1        0.0564
     39 C          66.4188   93.2288   11.3254 C.ar    1  UNL1       -0.0094
     40 C          67.1064   91.9159   11.0945 C.ar    1  UNL1       -0.0025
     41 C          68.0373   91.7514    9.9299 C.ar    1  UNL1        0.0111
     42 C          68.2805   92.8998    8.9961 C.ar    1  UNL1        0.0585
     43 CL         69.2114   92.7353    7.8315 Cl      1  UNL1       -0.0822
     44 C          67.5929   94.2128    9.2270 C.ar    1  UNL1        0.0225
     45 C          66.6620   94.3773   10.3917 C.ar    1  UNL1        0.0546
     46 CL         65.9744   95.6902   10.6226 Cl      1  UNL1       -0.0825
@<TRIPOS>BOND
     1    28    29    1
     2    29    30    1
     3    29    27    1
     4    16    27    1
     5    16    17    1
     6    17    18   am
     7    18    19    2
     8    18    21    1
     9    21    22    1
    10    22    23    1
    11    23    24    1
    12    16     9    1
    13     9    10   ar
    14    10    11   ar
    15    11    12    1
    16    11    13   ar
    17    13    14   ar
    18    14    15   ar
    19    15     1    1
    20     1     2    1
    21     2     3    1
    22     3     4    1
    23     4     5   am
    24     5     6    2
    25     5    31    1
    26    31    38    1
    27    38    39    1
    28    39    40   ar
    29    40    41   ar
    30    41    42   ar
    31    42    43    1
    32    42    44   ar
    33    44    45   ar
    34    45    46    1
    35    31    32    1
    36    32    33    1
    37    33    34    1
    38    34    35    1
    39    35    36    1
    40    36    37    2
    41     4     7    1
    42     7     8    1
    43    15     9   ar
    44     8     1    1
    45    45    39   ar
    46    36    32   am
    47    17    20    1
    48    24    25    1
    49    24    26    1
@<TRIPOS>MOLECULE
*****
 46 49 0 0 0
SMALL
GASTEIGER

@<TRIPOS>ATOM
      1 N          63.4407   85.5950   14.3060 N.pl3   1  UNL1       -0.3043
      2 C          64.0332   86.6433   13.4116 C.3     1  UNL1        0.1123
      3 C          64.2051   88.0467   13.9125 C.3     1  UNL1        0.1149
      4 N          63.7845   88.4018   15.3079 N.am    1  UNL1       -0.2747
      5 C          63.9564   89.8051   15.8088 C.2     1  UNL1        0.2442
      6 O          63.5359   90.1601   17.2042 O.2     1  UNL1       -0.2731
      7 C          63.1920   87.3534   16.2023 C.3     1  UNL1        0.1149
      8 C          63.0201   85.9500   15.7013 C.3     1  UNL1        0.1123
      9 C          62.7148   83.9477   12.4325 C.ar    1  UNL1        0.0111
     10 C          62.5429   82.5444   11.9316 C.ar    1  UNL1        0.0282
     11 C          62.9250   81.3848   12.8031 C.ar    1  UNL1        0.1400
     12 F          62.7531   79.9814   12.3021 F       1  UNL1       -0.2042
     13 C          63.4790   81.6287   14.1755 C.ar    1  UNL1        0.0309
     14 C          63.6508   83.0320   14.6764 C.ar    1  UNL1        0.0166
     15 C          63.2688   84.1916   13.8050 C.ar    1  UNL1        0.0456
     16 C          62.3327   85.1073   11.5610 C.3     1  UNL1        0.0953
     17 N          61.1591   85.9664   11.9277 N.am    1  UNL1       -0.3022
     18 C          60.7686   87.1176   11.0489 C.2     1  UNL1        0.2227
     19 O          59.5950   87.9767   11.4157 O.2     1  UNL1       -0.2751
     20 H          60.6451   85.7747   12.7452 H       1  UNL1        0.1497
     21 C          61.5518   87.4096    9.8034 C.3     1  UNL1        0.0865
     22 C          60.8581   87.4532    8.4742 C.3     1  UNL1        0.0264
     23 C          59.8507   86.4001    8.1190 C.3     1  UNL1        0.0656
     24 N          58.4363   86.7899    7.8072 N.3     1  UNL1       -0.3211
     25 H          57.9963   87.1715    8.6445 H       1  UNL1        0.1189
     26 H          57.9182   85.9686    7.4950 H       1  UNL1        0.1189
     27 C          63.1242   85.4077   10.3228 C.3     1  UNL1        0.0242
     28 C          62.8388   84.3921    7.9485 C.3     1  UNL1        0.0001
     29 C          63.4110   84.3176    9.3331 C.3     1  UNL1        0.0020
     30 C          64.2700   83.1530    9.7279 C.3     1  UNL1        0.0001
     31 C          64.5489   90.8534   14.9144 C.3     1  UNL1        0.1564
     32 N          65.8454   91.5103   15.2853 N.am    1  UNL1       -0.2727
     33 C          67.1819   91.2383   14.6609 C.3     1  UNL1        0.0943
     34 C          68.1956   92.1143   15.3354 C.3     1  UNL1        0.0311
     35 C          67.4856   92.9278   16.3767 C.3     1  UNL1        0.0870
     36 C          66.0331   92.5544   16.3457 C.2     1  UNL1        0.2260
     37 O          64.9572   93.1251   17.2214 O.2     1  UNL1       -0.2749
     38 C          63.8449   91.2450   13.6491 C.3     1  UNL1        0.0564
     39 C          64.5851   91.9912   12.5791 C.ar    1  UNL1       -0.0094
     40 C          65.5841   93.0455   12.9540 C.ar    1  UNL1       -0.0025
     41 C          66.3244   93.7917   11.8839 C.ar    1  UNL1        0.0111
     42 C          66.0657   93.4838   10.4389 C.ar    1  UNL1        0.0585
     43 CL         66.8059   94.2301    9.3688 Cl      1  UNL1       -0.0822
     44 C          65.0666   92.4295   10.0639 C.ar    1  UNL1        0.0225
     45 C          64.3264   91.6832   11.1339 C.ar    1  UNL1        0.0546
     46 CL         63.3274   90.6290   10.7590 Cl      1  UNL1       -0.0825
@<TRIPOS>BOND
     1    28    29    1
     2    29    30    1
     3    29    27    1
     4    16    27    1
     5    16    17    1
     6    17    18   am
     7    18    19    2
     8    18    21    1
     9    21    22    1
    10    22    23    1
    11    23    24    1
    12    16     9    1
    13     9    10   ar
    14    10    11   ar
    15    11    12    1
    16    11    13   ar
    17    13    14   ar
    18    14    15   ar
    19    15     1    1
    20     1     2    1
    21     2     3    1
    22     3     4    1
    23     4     5   am
    24     5     6    2
    25     5    31    1
    26    31    38    1
    27    38    39    1
    28    39    40   ar
    29    40    41   ar
    30    41    42   ar
    31    42    43    1
    32    42    44   ar
    33    44    45   ar
    34    45    46    1
    35    31    32    1
    36    32    33    1
    37    33    34    1
    38    34    35    1
    39    35    36    1
    40    36    37    2
    41     4     7    1
    42     7     8    1
    43    15     9   ar
    44     8     1    1
    45    45    39   ar
    46    36    32   am
    47    17    20    1
    48    24    25    1
    49    24    26    1
@<TRIPOS>MOLECULE
*****
 46 49 0 0 0
SMALL
GASTEIGER

@<TRIPOS>ATOM
      1 N          61.9003   89.3358   10.2215 N.pl3   1  UNL1       -0.3043
      2 C          62.1224   89.0427   11.6757 C.3     1  UNL1        0.1123
      3 C          63.0801   89.8789   12.4716 C.3     1  UNL1        0.1149
      4 N          63.8159   91.0082   11.8133 N.am    1  UNL1       -0.2747
      5 C          64.7737   91.8443   12.6092 C.2     1  UNL1        0.2442
      6 O          65.5094   92.9736   11.9509 O.2     1  UNL1       -0.2731
      7 C          63.5939   91.3013   10.3591 C.3     1  UNL1        0.1149
      8 C          62.6361   90.4651    9.5632 C.3     1  UNL1        0.1123
      9 C          60.9445   87.0074    9.5775 C.ar    1  UNL1        0.0111
     10 C          59.9867   86.1712    8.7816 C.ar    1  UNL1        0.0282
     11 C          59.0270   86.8273    7.8338 C.ar    1  UNL1        0.1400
     12 F          58.0692   85.9911    7.0379 F       1  UNL1       -0.2042
     13 C          59.0250   88.3196    7.6819 C.ar    1  UNL1        0.0309
     14 C          59.9828   89.1557    8.4777 C.ar    1  UNL1        0.0166
     15 C          60.9425   88.4996    9.4256 C.ar    1  UNL1        0.0456
     16 C          61.9043   86.3512   10.5253 C.3     1  UNL1        0.0953
     17 N          61.5175   86.1426   11.9595 N.am    1  UNL1       -0.3022
     18 C          62.1842   85.0690   12.7675 C.2     1  UNL1        0.2227
     19 O          61.7973   84.8603   14.2017 O.2     1  UNL1       -0.2751
     20 H          60.8260   86.7102   12.3704 H       1  UNL1        0.1497
     21 C          63.2377   84.2041   12.1414 C.3     1  UNL1        0.0865
     22 C          64.1171   83.3493   13.0051 C.3     1  UNL1        0.0264
     23 C          63.6132   82.0327   13.5177 C.3     1  UNL1        0.0656
     24 N          62.7457   81.9863   14.7405 N.3     1  UNL1       -0.3211
     25 H          63.2847   82.2901   15.5514 H       1  UNL1        0.1189
     26 H          62.4176   81.0319   14.8886 H       1  UNL1        0.1189
     27 C          63.2508   85.9038   10.0390 C.3     1  UNL1        0.0242
     28 C          62.9067   85.0750    7.6008 C.3     1  UNL1        0.0001
     29 C          63.3536   84.8178    9.0094 C.3     1  UNL1        0.0020
     30 C          63.9033   83.4746    9.3884 C.3     1  UNL1        0.0001
     31 C          64.9957   91.5512   14.0635 C.3     1  UNL1        0.1564
     32 N          66.3128   91.8789   14.7020 N.am    1  UNL1       -0.2727
     33 C          67.6644   91.7012   14.0764 C.3     1  UNL1        0.0943
     34 C          68.6966   92.1542   15.0660 C.3     1  UNL1        0.0311
     35 C          67.9827   92.6120   16.3034 C.3     1  UNL1        0.0870
     36 C          66.5095   92.4418   16.0784 C.2     1  UNL1        0.2260
     37 O          65.4237   92.7758   17.0579 O.2     1  UNL1       -0.2749
     38 C          63.9006   90.9305   14.8791 C.3     1  UNL1        0.0564
     39 C          63.9464   89.4674   15.2065 C.ar    1  UNL1       -0.0094
     40 C          64.6855   88.5206   14.3079 C.ar    1  UNL1       -0.0025
     41 C          64.7314   87.0575   14.6353 C.ar    1  UNL1        0.0111
     42 C          64.0381   86.5411   15.8611 C.ar    1  UNL1        0.0585
     43 CL         64.0840   85.0779   16.1884 Cl      1  UNL1       -0.0822
     44 C          63.2990   87.4878   16.7597 C.ar    1  UNL1        0.0225
     45 C          63.2531   88.9510   16.4324 C.ar    1  UNL1        0.0546
     46 CL         62.5140   89.8977   17.3309 Cl      1  UNL1       -0.0825
@<TRIPOS>BOND
     1    28    29    1
     2    29    30    1
     3    29    27    1
     4    16    27    1
     5    16    17    1
     6    17    18   am
     7    18    19    2
     8    18    21    1
     9    21    22    1
    10    22    23    1
    11    23    24    1
    12    16     9    1
    13     9    10   ar
    14    10    11   ar
    15    11    12    1
    16    11    13   ar
    17    13    14   ar
    18    14    15   ar
    19    15     1    1
    20     1     2    1
    21     2     3    1
    22     3     4    1
    23     4     5   am
    24     5     6    2
    25     5    31    1
    26    31    38    1
    27    38    39    1
    28    39    40   ar
    29    40    41   ar
    30    41    42   ar
    31    42    43    1
    32    42    44   ar
    33    44    45   ar
    34    45    46    1
    35    31    32    1
    36    32    33    1
    37    33    34    1
    38    34    35    1
    39    35    36    1
    40    36    37    2
    41     4     7    1
    42     7     8    1
    43    15     9   ar
    44     8     1    1
    45    45    39   ar
    46    36    32   am
    47    17    20    1
    48    24    25    1
    49    24    26    1
@<TRIPOS>MOLECULE
*****
 46 49 0 0 0
SMALL
GASTEIGER

@<TRIPOS>ATOM
      1 N          61.9647   88.9374   10.9214 N.pl3   1  UNL1       -0.3043
      2 C          63.1294   89.7813   10.4956 C.3     1  UNL1        0.1123
      3 C          63.8327   90.6488   11.4969 C.3     1  UNL1        0.1149
      4 N          63.3713   90.6726   12.9240 N.am    1  UNL1       -0.2747
      5 C          64.0746   91.5402   13.9253 C.2     1  UNL1        0.2442
      6 O          63.6132   91.5639   15.3523 O.2     1  UNL1       -0.2731
      7 C          62.2066   89.8287   13.3498 C.3     1  UNL1        0.1149
      8 C          61.5033   88.9611   12.3484 C.3     1  UNL1        0.1123
      9 C          61.4893   86.5873    9.9209 C.ar    1  UNL1        0.0111
     10 C          60.7860   85.7197    8.9195 C.ar    1  UNL1        0.0282
     11 C          59.8547   86.3348    7.9173 C.ar    1  UNL1        0.1400
     12 F          59.1514   85.4671    6.9160 F       1  UNL1       -0.2042
     13 C          59.6267   87.8173    7.9165 C.ar    1  UNL1        0.0309
     14 C          60.3300   88.6848    8.9178 C.ar    1  UNL1        0.0166
     15 C          61.2613   88.0698    9.9200 C.ar    1  UNL1        0.0456
     16 C          62.4206   85.9722   10.9231 C.3     1  UNL1        0.0953
     17 N          63.6080   85.1826   10.4577 N.am    1  UNL1       -0.3022
     18 C          63.6362   83.6938   10.6386 C.2     1  UNL1        0.2227
     19 O          64.8236   82.9041   10.1732 O.2     1  UNL1       -0.2751
     20 H          64.3687   85.6414   10.0334 H       1  UNL1        0.1497
     21 C          62.4772   82.9947   11.2850 C.3     1  UNL1        0.0865
     22 C          62.7090   81.7625   12.1084 C.3     1  UNL1        0.0264
     23 C          61.8580   81.4952   13.3144 C.3     1  UNL1        0.0656
     24 N          62.5020   81.1794   14.6317 N.3     1  UNL1       -0.3211
     25 H          62.9902   80.2862   14.5660 H       1  UNL1        0.1189
     26 H          61.7856   81.1228   15.3556 H       1  UNL1        0.1189
     27 C          62.1647   86.1469   12.3907 C.3     1  UNL1        0.0242
     28 C          64.1779   87.1879   13.6608 C.3     1  UNL1        0.0001
     29 C          63.2928   86.0123   13.3701 C.3     1  UNL1        0.0020
     30 C          63.5359   84.7020   14.0586 C.3     1  UNL1        0.0001
     31 C          65.2394   92.3840   13.4995 C.3     1  UNL1        0.1564
     32 N          66.4414   92.5066   14.3884 N.am    1  UNL1       -0.2727
     33 C          67.0905   91.3907   15.1523 C.3     1  UNL1        0.0943
     34 C          68.2556   91.9610   15.9054 C.3     1  UNL1        0.0311
     35 C          68.3266   93.4293   15.6069 C.3     1  UNL1        0.0870
     36 C          67.2054   93.7665   14.6693 C.2     1  UNL1        0.2260
     37 O          66.9015   95.1250   14.1108 O.2     1  UNL1       -0.2749
     38 C          65.2021   93.1053   12.1849 C.3     1  UNL1        0.0564
     39 C          66.3237   92.9346   11.2036 C.ar    1  UNL1       -0.0094
     40 C          67.2780   91.7863   11.3477 C.ar    1  UNL1       -0.0025
     41 C          68.3996   91.6156   10.3665 C.ar    1  UNL1        0.0111
     42 C          68.5669   92.5931    9.2412 C.ar    1  UNL1        0.0585
     43 CL         69.6886   92.4224    8.2599 Cl      1  UNL1       -0.0822
     44 C          67.6127   93.7415    9.0971 C.ar    1  UNL1        0.0225
     45 C          66.4910   93.9122   10.0783 C.ar    1  UNL1        0.0546
     46 CL         65.5368   95.0605    9.9342 Cl      1  UNL1       -0.0825
@<TRIPOS>BOND
     1    28    29    1
     2    29    30    1
     3    29    27    1
     4    16    27    1
     5    16    17    1
     6    17    18   am
     7    18    19    2
     8    18    21    1
     9    21    22    1
    10    22    23    1
    11    23    24    1
    12    16     9    1
    13     9    10   ar
    14    10    11   ar
    15    11    12    1
    16    11    13   ar
    17    13    14   ar
    18    14    15   ar
    19    15     1    1
    20     1     2    1
    21     2     3    1
    22     3     4    1
    23     4     5   am
    24     5     6    2
    25     5    31    1
    26    31    38    1
    27    38    39    1
    28    39    40   ar
    29    40    41   ar
    30    41    42   ar
    31    42    43    1
    32    42    44   ar
    33    44    45   ar
    34    45    46    1
    35    31    32    1
    36    32    33    1
    37    33    34    1
    38    34    35    1
    39    35    36    1
    40    36    37    2
    41     4     7    1
    42     7     8    1
    43    15     9   ar
    44     8     1    1
    45    45    39   ar
    46    36    32   am
    47    17    20    1
    48    24    25    1
    49    24    26    1
@<TRIPOS>MOLECULE
*****
 46 49 0 0 0
SMALL
GASTEIGER

@<TRIPOS>ATOM
      1 N          63.5980   86.2077   13.9345 N.pl3   1  UNL1       -0.3043
      2 C          63.8100   87.0804   12.7330 C.3     1  UNL1        0.1123
      3 C          63.9265   88.5668   12.8968 C.3     1  UNL1        0.1149
      4 N          63.8309   89.1807   14.2622 N.am    1  UNL1       -0.2747
      5 C          63.9474   90.6671   14.4260 C.2     1  UNL1        0.2442
      6 O          63.8519   91.2809   15.7913 O.2     1  UNL1       -0.2731
      7 C          63.6189   88.3080   15.4637 C.3     1  UNL1        0.1149
      8 C          63.5024   86.8215   15.2998 C.3     1  UNL1        0.1123
      9 C          62.6662   84.1521   12.6475 C.ar    1  UNL1        0.0111
     10 C          62.5498   82.6656   12.4837 C.ar    1  UNL1        0.0282
     11 C          63.2486   81.7483   13.4429 C.ar    1  UNL1        0.1400
     12 F          63.1322   80.2618   13.2790 F       1  UNL1       -0.2042
     13 C          64.0639   82.3174   14.5660 C.ar    1  UNL1        0.0309
     14 C          64.1804   83.8039   14.7298 C.ar    1  UNL1        0.0166
     15 C          63.4815   84.7212   13.7706 C.ar    1  UNL1        0.0456
     16 C          61.9673   85.0694   11.6883 C.3     1  UNL1        0.0953
     17 N          61.2683   86.2951   12.1970 N.am    1  UNL1       -0.3022
     18 C          60.5115   87.1755   11.2471 C.2     1  UNL1        0.2227
     19 O          59.8124   88.4013   11.7559 O.2     1  UNL1       -0.2751
     20 H          61.3062   86.5218   13.1543 H       1  UNL1        0.1497
     21 C          60.4537   86.8301    9.7886 C.3     1  UNL1        0.0865
     22 C          60.2348   87.9096    8.7704 C.3     1  UNL1        0.0264
     23 C          59.1175   87.7881    7.7770 C.3     1  UNL1        0.0656
     24 N          58.4853   86.4525    7.5189 N.3     1  UNL1       -0.3211
     25 H          59.1680   85.8314    7.0848 H       1  UNL1        0.1189
     26 H          57.6867   86.5692    6.8951 H       1  UNL1        0.1189
     27 C          61.9675   84.7610   10.2204 C.3     1  UNL1        0.0242
     28 C          63.5552   85.5589    8.3249 C.3     1  UNL1        0.0001
     29 C          63.2661   84.6448    9.4785 C.3     1  UNL1        0.0020
     30 C          64.2756   83.6145    9.8904 C.3     1  UNL1        0.0001
     31 C          64.1594   91.5397   13.2246 C.3     1  UNL1        0.1564
     32 N          63.3905   91.2792   11.9633 N.am    1  UNL1       -0.2727
     33 C          62.0127   90.6926   11.8758 C.3     1  UNL1        0.0943
     34 C          61.6351   90.6104   10.4265 C.3     1  UNL1        0.0311
     35 C          62.7795   91.1463    9.6182 C.3     1  UNL1        0.0870
     36 C          63.8644   91.5596   10.5680 C.2     1  UNL1        0.2260
     37 O          65.1903   92.1497   10.1890 O.2     1  UNL1       -0.2749
     38 C          65.1404   92.6729   13.2844 C.3     1  UNL1        0.0564
     39 C          66.3606   92.5638   14.1500 C.ar    1  UNL1       -0.0094
     40 C          66.2810   92.9148   15.6061 C.ar    1  UNL1       -0.0025
     41 C          67.5012   92.8057   16.4717 C.ar    1  UNL1        0.0111
     42 C          68.8009   92.3455   15.8812 C.ar    1  UNL1        0.0585
     43 CL         70.0211   92.2363   16.7467 Cl      1  UNL1       -0.0822
     44 C          68.8806   91.9944   14.4249 C.ar    1  UNL1        0.0225
     45 C          67.6604   92.1035   13.5593 C.ar    1  UNL1        0.0546
     46 CL         67.7400   91.7525   12.1032 Cl      1  UNL1       -0.0825
@<TRIPOS>BOND
     1    28    29    1
     2    29    30    1
     3    29    27    1
     4    16    27    1
     5    16    17    1
     6    17    18   am
     7    18    19    2
     8    18    21    1
     9    21    22    1
    10    22    23    1
    11    23    24    1
    12    16     9    1
    13     9    10   ar
    14    10    11   ar
    15    11    12    1
    16    11    13   ar
    17    13    14   ar
    18    14    15   ar
    19    15     1    1
    20     1     2    1
    21     2     3    1
    22     3     4    1
    23     4     5   am
    24     5     6    2
    25     5    31    1
    26    31    38    1
    27    38    39    1
    28    39    40   ar
    29    40    41   ar
    30    41    42   ar
    31    42    43    1
    32    42    44   ar
    33    44    45   ar
    34    45    46    1
    35    31    32    1
    36    32    33    1
    37    33    34    1
    38    34    35    1
    39    35    36    1
    40    36    37    2
    41     4     7    1
    42     7     8    1
    43    15     9   ar
    44     8     1    1
    45    45    39   ar
    46    36    32   am
    47    17    20    1
    48    24    25    1
    49    24    26    1
