@<TRIPOS>MOLECULE
*****
 21 22 0 0 0
SMALL
GASTEIGER

@<TRIPOS>ATOM
      1 C          63.1528   85.5283   12.8312 C.ar    1  UNL1        0.1454
      2 C          62.7124   84.2189   12.2465 C.ar    1  UNL1        0.0519
      3 C          63.0711   82.9334   12.9311 C.ar    1  UNL1        0.0624
      4 C          62.6306   81.6242   12.3464 C.3     1  UNL1        0.0522
      5 N          63.8703   82.9571   14.2002 N.ar    1  UNL1       -0.2482
      6 C          64.3107   84.2663   14.7849 C.ar    1  UNL1        0.0985
      7 C          63.9520   85.5520   14.1003 C.ar    1  UNL1        0.0475
      8 O          62.7941   86.8138   12.1466 O.3     1  UNL1       -0.4506
      9 C          60.6611   87.6010   10.8894 C.ar    1  UNL1        0.1738
     10 C          59.7930   87.5826    9.6663 C.ar    1  UNL1        0.0514
     11 C          60.1897   86.7585    8.4773 C.ar    1  UNL1        0.0609
     12 CL         59.3215   86.7401    7.2542 Cl      1  UNL1       -0.0821
     13 C          61.4545   85.9529    8.5115 C.ar    1  UNL1        0.0147
     14 C          62.3226   85.9713    9.7346 C.ar    1  UNL1        0.0415
     15 C          61.9259   86.7954   10.9235 C.ar    1  UNL1        0.1790
     16 C          59.6854   89.7948   11.8820 C.3     1  UNL1        0.2526
     17 O          60.2644   88.4251   12.0783 O.3     1  UNL1       -0.4683
     18 C          64.3925   86.8612   14.6849 C.3     1  UNL1        0.1039
     19 N          63.6336   87.4647   15.8295 N.3     1  UNL1       -0.2664
     20 C          63.0483   86.5806   16.8905 C.3     1  UNL1        0.0899
     21 C          63.4600   88.9523   15.9129 C.3     1  UNL1        0.0899
@<TRIPOS>BOND
     1    16    17    1
     2    17     9    1
     3     9    10   ar
     4    10    11   ar
     5    11    12    1
     6    11    13   ar
     7    13    14   ar
     8    14    15   ar
     9    15     8    1
    10     8     1    1
    11     1     2   ar
    12     2     3   ar
    13     3     4    1
    14     3     5   ar
    15     5     6   ar
    16     6     7   ar
    17     7    18    1
    18    18    19    1
    19    19    20    1
    20    19    21    1
    21    15     9   ar
    22     7     1   ar
@<TRIPOS>MOLECULE
*****
 21 22 0 0 0
SMALL
GASTEIGER

@<TRIPOS>ATOM
      1 C          63.2366   90.3996   13.2767 C.ar    1  UNL1        0.1454
      2 C          63.7972   91.1417   12.0998 C.ar    1  UNL1        0.0519
      3 C          65.0716   91.9199   12.2417 C.ar    1  UNL1        0.0624
      4 C          65.6322   92.6620   11.0648 C.3     1  UNL1        0.0522
      5 N          65.7855   91.9561   13.5604 N.ar    1  UNL1       -0.2482
      6 C          65.2249   91.2141   14.7373 C.ar    1  UNL1        0.0985
      7 C          63.9504   90.4358   14.5955 C.ar    1  UNL1        0.0475
      8 O          61.9621   89.6214   13.1349 O.3     1  UNL1       -0.4506
      9 C          61.7557   88.0412   11.0829 C.ar    1  UNL1        0.1738
     10 C          61.2037   87.7482    9.7193 C.ar    1  UNL1        0.0514
     11 C          60.3061   88.7423    9.0440 C.ar    1  UNL1        0.0609
     12 CL         59.7541   88.4493    7.6804 Cl      1  UNL1       -0.0821
     13 C          59.9605   90.0295    9.7323 C.ar    1  UNL1        0.0147
     14 C          60.5125   90.3225   11.0959 C.ar    1  UNL1        0.0415
     15 C          61.4101   89.3284   11.7712 C.ar    1  UNL1        0.1790
     16 C          62.3453   85.5814   11.6758 C.3     1  UNL1        0.2526
     17 O          62.6533   87.0471   11.7582 O.3     1  UNL1       -0.4683
     18 C          63.3898   89.6938   15.7724 C.3     1  UNL1        0.1039
     19 N          63.5759   88.2093   15.8809 N.3     1  UNL1       -0.2664
     20 C          62.9808   87.4615   17.0371 C.3     1  UNL1        0.0899
     21 C          64.3569   87.4727   14.8334 C.3     1  UNL1        0.0899
@<TRIPOS>BOND
     1    16    17    1
     2    17     9    1
     3     9    10   ar
     4    10    11   ar
     5    11    12    1
     6    11    13   ar
     7    13    14   ar
     8    14    15   ar
     9    15     8    1
    10     8     1    1
    11     1     2   ar
    12     2     3   ar
    13     3     4    1
    14     3     5   ar
    15     5     6   ar
    16     6     7   ar
    17     7    18    1
    18    18    19    1
    19    19    20    1
    20    19    21    1
    21    15     9   ar
    22     7     1   ar
@<TRIPOS>MOLECULE
*****
 21 22 0 0 0
SMALL
GASTEIGER

@<TRIPOS>ATOM
      1 C          62.4545   85.3706    9.6211 C.ar    1  UNL1        0.1454
      2 C          62.7815   84.7806    8.2812 C.ar    1  UNL1        0.0519
      3 C          61.8972   85.0606    7.1025 C.ar    1  UNL1        0.0624
      4 C          62.2242   84.4707    5.7627 C.3     1  UNL1        0.0522
      5 N          60.6859   85.9306    7.2635 N.ar    1  UNL1       -0.2482
      6 C          60.3589   86.5205    8.6032 C.ar    1  UNL1        0.0985
      7 C          61.2432   86.2405    9.7821 C.ar    1  UNL1        0.0475
      8 O          63.3389   85.0905   10.7998 O.3     1  UNL1       -0.4506
      9 C          62.9086   83.9205   13.0793 C.ar    1  UNL1        0.1738
     10 C          62.7163   82.6668   13.8800 C.ar    1  UNL1        0.0514
     11 C          62.7620   81.3295   13.2022 C.ar    1  UNL1        0.0609
     12 CL         62.5697   80.0757   14.0031 Cl      1  UNL1       -0.0821
     13 C          63.0000   81.2458   11.7236 C.ar    1  UNL1        0.0147
     14 C          63.1923   82.4995   10.9228 C.ar    1  UNL1        0.0415
     15 C          63.1466   83.8368   11.6007 C.ar    1  UNL1        0.1790
     16 C          64.0894   85.8008   14.4283 C.3     1  UNL1        0.2526
     17 O          62.8628   85.2578   13.7571 O.3     1  UNL1       -0.4683
     18 C          60.9163   86.8305   11.1218 C.3     1  UNL1        0.1039
     19 N          61.3015   88.2466   11.4320 N.3     1  UNL1       -0.2664
     20 C          62.7387   88.5949   11.6838 C.3     1  UNL1        0.0899
     21 C          60.2497   89.3144   11.4903 C.3     1  UNL1        0.0899
@<TRIPOS>BOND
     1    16    17    1
     2    17     9    1
     3     9    10   ar
     4    10    11   ar
     5    11    12    1
     6    11    13   ar
     7    13    14   ar
     8    14    15   ar
     9    15     8    1
    10     8     1    1
    11     1     2   ar
    12     2     3   ar
    13     3     4    1
    14     3     5   ar
    15     5     6   ar
    16     6     7   ar
    17     7    18    1
    18    18    19    1
    19    19    20    1
    20    19    21    1
    21    15     9   ar
    22     7     1   ar
@<TRIPOS>MOLECULE
*****
 21 22 0 0 0
SMALL
GASTEIGER

@<TRIPOS>ATOM
      1 C          63.1539   90.5070   12.8197 C.ar    1  UNL1        0.1454
      2 C          63.7438   91.1879   11.6203 C.ar    1  UNL1        0.0519
      3 C          65.0267   91.9546   11.7485 C.ar    1  UNL1        0.0624
      4 C          65.6165   92.6355   10.5491 C.3     1  UNL1        0.0522
      5 N          65.7197   92.0405   13.0760 N.ar    1  UNL1       -0.2482
      6 C          65.1299   91.3596   14.2754 C.ar    1  UNL1        0.0985
      7 C          63.8470   90.5929   14.1472 C.ar    1  UNL1        0.0475
      8 O          61.8711   89.7404   12.6915 O.3     1  UNL1       -0.4506
      9 C          60.7044   89.3039   10.4115 C.ar    1  UNL1        0.1738
     10 C          60.4720   88.4249    9.2185 C.ar    1  UNL1        0.0514
     11 C          61.1738   87.1035    9.1124 C.ar    1  UNL1        0.0609
     12 CL         60.9413   86.2245    7.9193 Cl      1  UNL1       -0.0821
     13 C          62.1080   86.6610   10.1993 C.ar    1  UNL1        0.0147
     14 C          62.3404   87.5399   11.3923 C.ar    1  UNL1        0.0415
     15 C          61.6386   88.8614   11.4984 C.ar    1  UNL1        0.1790
     16 C          58.9717   90.8434   11.5852 C.3     1  UNL1        0.2526
     17 O          60.0026   90.6253   10.5177 O.3     1  UNL1       -0.4683
     18 C          63.2571   89.9120   15.3466 C.3     1  UNL1        0.1039
     19 N          63.5863   88.4766   15.6316 N.3     1  UNL1       -0.2664
     20 C          63.1186   87.8387   16.9062 C.3     1  UNL1        0.0899
     21 C          64.3830   87.6791   14.6421 C.3     1  UNL1        0.0899
@<TRIPOS>BOND
     1    16    17    1
     2    17     9    1
     3     9    10   ar
     4    10    11   ar
     5    11    12    1
     6    11    13   ar
     7    13    14   ar
     8    14    15   ar
     9    15     8    1
    10     8     1    1
    11     1     2   ar
    12     2     3   ar
    13     3     4    1
    14     3     5   ar
    15     5     6   ar
    16     6     7   ar
    17     7    18    1
    18    18    19    1
    19    19    20    1
    20    19    21    1
    21    15     9   ar
    22     7     1   ar
@<TRIPOS>MOLECULE
*****
 21 22 0 0 0
SMALL
GASTEIGER

@<TRIPOS>ATOM
      1 C          63.6328   89.6587   13.1170 C.ar    1  UNL1        0.1454
      2 C          64.2250   88.6732   14.0805 C.ar    1  UNL1        0.0519
      3 C          64.0064   87.2030   13.8788 C.ar    1  UNL1        0.0624
      4 C          64.5986   86.2177   14.8422 C.3     1  UNL1        0.0522
      5 N          63.1957   86.7182   12.7136 N.ar    1  UNL1       -0.2482
      6 C          62.6035   87.7036   11.7502 C.ar    1  UNL1        0.0985
      7 C          62.8220   89.1739   11.9519 C.ar    1  UNL1        0.0475
      8 O          63.8514   91.1289   13.3187 O.3     1  UNL1       -0.4506
      9 C          65.0699   91.9507   15.4612 C.ar    1  UNL1        0.1738
     10 C          66.3149   92.4374   16.1417 C.ar    1  UNL1        0.0514
     11 C          67.5863   92.5891   15.3603 C.ar    1  UNL1        0.0609
     12 CL         68.8313   93.0759   16.0409 Cl      1  UNL1       -0.0821
     13 C          67.6127   92.2541   13.8985 C.ar    1  UNL1        0.0147
     14 C          66.3678   91.7673   13.2180 C.ar    1  UNL1        0.0415
     15 C          65.0964   91.6156   13.9993 C.ar    1  UNL1        0.1790
     16 C          63.3784   90.4463   16.7361 C.3     1  UNL1        0.2526
     17 O          63.7985   91.7990   16.2425 O.3     1  UNL1       -0.4683
     18 C          62.2298   90.1593   10.9884 C.3     1  UNL1        0.1039
     19 N          60.8272   89.9716   10.4909 N.3     1  UNL1       -0.2664
     20 C          60.5814   89.2748    9.1854 C.3     1  UNL1        0.0899
     21 C          59.6704   90.4806   11.2988 C.3     1  UNL1        0.0899
@<TRIPOS>BOND
     1    16    17    1
     2    17     9    1
     3     9    10   ar
     4    10    11   ar
     5    11    12    1
     6    11    13   ar
     7    13    14   ar
     8    14    15   ar
     9    15     8    1
    10     8     1    1
    11     1     2   ar
    12     2     3   ar
    13     3     4    1
    14     3     5   ar
    15     5     6   ar
    16     6     7   ar
    17     7    18    1
    18    18    19    1
    19    19    20    1
    20    19    21    1
    21    15     9   ar
    22     7     1   ar
@<TRIPOS>MOLECULE
*****
 21 22 0 0 0
SMALL
GASTEIGER

@<TRIPOS>ATOM
      1 C          63.6261   89.8544   13.4843 C.ar    1  UNL1        0.1454
      2 C          64.2384   88.8496   14.4147 C.ar    1  UNL1        0.0519
      3 C          64.1205   87.3839   14.1186 C.ar    1  UNL1        0.0624
      4 C          64.7328   86.3792   15.0490 C.3     1  UNL1        0.0522
      5 N          63.3902   86.9229   12.8922 N.ar    1  UNL1       -0.2482
      6 C          62.7779   87.9276   11.9618 C.ar    1  UNL1        0.0985
      7 C          62.8958   89.3934   12.2579 C.ar    1  UNL1        0.0475
      8 O          63.7441   91.3201   13.7804 O.3     1  UNL1       -0.4506
      9 C          66.0964   92.2967   13.2676 C.ar    1  UNL1        0.1738
     10 C          67.4005   92.8626   13.7462 C.ar    1  UNL1        0.0514
     11 C          67.6564   93.0178   15.2160 C.ar    1  UNL1        0.0609
     12 CL         68.9606   93.5838   15.6945 Cl      1  UNL1       -0.0821
     13 C          66.6083   92.6072   16.2073 C.ar    1  UNL1        0.0147
     14 C          65.3042   92.0413   15.7287 C.ar    1  UNL1        0.0415
     15 C          65.0482   91.8861   14.2589 C.ar    1  UNL1        0.1790
     16 C          66.6148   92.9636   10.8107 C.3     1  UNL1        0.2526
     17 O          65.8405   92.1414   11.7978 O.3     1  UNL1       -0.4683
     18 C          62.2835   90.3981   11.3275 C.3     1  UNL1        0.1039
     19 N          60.9461   90.1263   10.7050 N.3     1  UNL1       -0.2664
     20 C          59.6900   90.5170   11.4259 C.3     1  UNL1        0.0899
     21 C          60.8648   89.4638    9.3617 C.3     1  UNL1        0.0899
@<TRIPOS>BOND
     1    16    17    1
     2    17     9    1
     3     9    10   ar
     4    10    11   ar
     5    11    12    1
     6    11    13   ar
     7    13    14   ar
     8    14    15   ar
     9    15     8    1
    10     8     1    1
    11     1     2   ar
    12     2     3   ar
    13     3     4    1
    14     3     5   ar
    15     5     6   ar
    16     6     7   ar
    17     7    18    1
    18    18    19    1
    19    19    20    1
    20    19    21    1
    21    15     9   ar
    22     7     1   ar
@<TRIPOS>MOLECULE
*****
 21 22 0 0 0
SMALL
GASTEIGER

@<TRIPOS>ATOM
      1 C          63.3910   88.6695   12.5452 C.ar    1  UNL1        0.1454
      2 C          63.3183   89.7459   11.5030 C.ar    1  UNL1        0.0519
      3 C          63.9912   91.0654   11.7393 C.ar    1  UNL1        0.0624
      4 C          63.9184   92.1417   10.6970 C.3     1  UNL1        0.0522
      5 N          64.7368   91.3088   13.0179 N.ar    1  UNL1       -0.2482
      6 C          64.8096   90.2325   14.0602 C.ar    1  UNL1        0.0985
      7 C          64.1366   88.9129   13.8238 C.ar    1  UNL1        0.0475
      8 O          62.7181   87.3500   12.3089 O.3     1  UNL1       -0.4506
      9 C          60.5192   87.7723   10.9911 C.ar    1  UNL1        0.1738
     10 C          59.6799   87.5674    9.7650 C.ar    1  UNL1        0.0514
     11 C          60.1999   86.7352    8.6305 C.ar    1  UNL1        0.0609
     12 CL         59.3605   86.5303    7.4043 Cl      1  UNL1       -0.0821
     13 C          61.5594   86.1079    8.7222 C.ar    1  UNL1        0.0147
     14 C          62.3987   86.3129    9.9483 C.ar    1  UNL1        0.0415
     15 C          61.8787   87.1451   11.0827 C.ar    1  UNL1        0.1790
     16 C          59.5223   90.0039   11.8721 C.3     1  UNL1        0.2526
     17 O          59.9992   88.6045   12.1255 O.3     1  UNL1       -0.4683
     18 C          64.2094   87.8366   14.8661 C.3     1  UNL1        0.1039
     19 N          63.4251   87.9698   16.1378 N.3     1  UNL1       -0.2664
     20 C          63.0549   86.7461   16.9223 C.3     1  UNL1        0.0899
     21 C          63.0111   89.3267   16.6250 C.3     1  UNL1        0.0899
@<TRIPOS>BOND
     1    16    17    1
     2    17     9    1
     3     9    10   ar
     4    10    11   ar
     5    11    12    1
     6    11    13   ar
     7    13    14   ar
     8    14    15   ar
     9    15     8    1
    10     8     1    1
    11     1     2   ar
    12     2     3   ar
    13     3     4    1
    14     3     5   ar
    15     5     6   ar
    16     6     7   ar
    17     7    18    1
    18    18    19    1
    19    19    20    1
    20    19    21    1
    21    15     9   ar
    22     7     1   ar
@<TRIPOS>MOLECULE
*****
 21 22 0 0 0
SMALL
GASTEIGER

@<TRIPOS>ATOM
      1 C          62.3361   86.3911   11.0353 C.ar    1  UNL1        0.1454
      2 C          62.3147   86.3156    9.5373 C.ar    1  UNL1        0.0519
      3 C          62.8160   85.0851    8.8412 C.ar    1  UNL1        0.0624
      4 C          62.7946   85.0096    7.3433 C.3     1  UNL1        0.0522
      5 N          63.3386   83.9301    9.6430 N.ar    1  UNL1       -0.2482
      6 C          63.3601   84.0056   11.1409 C.ar    1  UNL1        0.0985
      7 C          62.8588   85.2361   11.8371 C.ar    1  UNL1        0.0475
      8 O          61.8348   87.6215   11.7315 O.3     1  UNL1       -0.4506
      9 C          63.4400   89.4116   12.7160 C.ar    1  UNL1        0.1738
     10 C          64.1830   90.7072   12.5769 C.ar    1  UNL1        0.0514
     11 C          64.0638   91.5084   11.3144 C.ar    1  UNL1        0.0609
     12 CL         64.8069   92.8040   11.1754 Cl      1  UNL1       -0.0821
     13 C          63.2017   91.0139   10.1909 C.ar    1  UNL1        0.0147
     14 C          62.4588   89.7183   10.3300 C.ar    1  UNL1        0.0415
     15 C          62.5779   88.9172   11.5925 C.ar    1  UNL1        0.1790
     16 C          63.6983   89.3080   15.2991 C.3     1  UNL1        0.2526
     17 O          63.5591   88.6105   13.9785 O.3     1  UNL1       -0.4683
     18 C          62.8802   85.3116   13.3350 C.3     1  UNL1        0.1039
     19 N          63.3764   84.1456   14.1377 N.3     1  UNL1       -0.2664
     20 C          64.8161   84.0797   14.5535 C.3     1  UNL1        0.0899
     21 C          62.4329   83.0456   14.5246 C.3     1  UNL1        0.0899
@<TRIPOS>BOND
     1    16    17    1
     2    17     9    1
     3     9    10   ar
     4    10    11   ar
     5    11    12    1
     6    11    13   ar
     7    13    14   ar
     8    14    15   ar
     9    15     8    1
    10     8     1    1
    11     1     2   ar
    12     2     3   ar
    13     3     4    1
    14     3     5   ar
    15     5     6   ar
    16     6     7   ar
    17     7    18    1
    18    18    19    1
    19    19    20    1
    20    19    21    1
    21    15     9   ar
    22     7     1   ar
@<TRIPOS>MOLECULE
*****
 21 22 0 0 0
SMALL
GASTEIGER

@<TRIPOS>ATOM
      1 C          63.3877   86.9835   12.9178 C.ar    1  UNL1        0.1454
      2 C          62.5540   86.5505   11.7483 C.ar    1  UNL1        0.0519
      3 C          61.9632   87.5766   10.8276 C.ar    1  UNL1        0.0624
      4 C          61.1296   87.1436    9.6582 C.3     1  UNL1        0.0522
      5 N          62.2059   89.0358   11.0763 N.ar    1  UNL1       -0.2482
      6 C          63.0395   89.4689   12.2457 C.ar    1  UNL1        0.0985
      7 C          63.6304   88.4427   13.1665 C.ar    1  UNL1        0.0475
      8 O          63.9785   85.9573   13.8386 O.3     1  UNL1       -0.4506
      9 C          62.4865   83.9523   14.5484 C.ar    1  UNL1        0.1738
     10 C          62.0979   82.5099   14.4121 C.ar    1  UNL1        0.0514
     11 C          62.8127   81.6302   13.4296 C.ar    1  UNL1        0.0609
     12 CL         62.4240   80.1878   13.2933 Cl      1  UNL1       -0.0821
     13 C          63.9160   82.1929   12.5835 C.ar    1  UNL1        0.0147
     14 C          64.3046   83.6352   12.7198 C.ar    1  UNL1        0.0415
     15 C          63.5899   84.5149   13.7023 C.ar    1  UNL1        0.1790
     16 C          62.5084   85.3896   16.7126 C.3     1  UNL1        0.2526
     17 O          61.7718   84.8320   15.5309 O.3     1  UNL1       -0.4683
     18 C          64.4640   88.8757   14.3359 C.3     1  UNL1        0.1039
     19 N          63.8606   89.7285   15.4123 N.3     1  UNL1       -0.2664
     20 C          64.0995   91.2094   15.4180 C.3     1  UNL1        0.0899
     21 C          63.0183   89.1005   16.4828 C.3     1  UNL1        0.0899
@<TRIPOS>BOND
     1    16    17    1
     2    17     9    1
     3     9    10   ar
     4    10    11   ar
     5    11    12    1
     6    11    13   ar
     7    13    14   ar
     8    14    15   ar
     9    15     8    1
    10     8     1    1
    11     1     2   ar
    12     2     3   ar
    13     3     4    1
    14     3     5   ar
    15     5     6   ar
    16     6     7   ar
    17     7    18    1
    18    18    19    1
    19    19    20    1
    20    19    21    1
    21    15     9   ar
    22     7     1   ar
