@<TRIPOS>MOLECULE
*****
 43 46 0 0 0
SMALL
GASTEIGER

@<TRIPOS>ATOM
      1 N          64.3645   91.0017   13.1491 N.pl3   1  UNL1       -0.3025
      2 C          63.5495   91.7113   12.1089 C.3     1  UNL1        0.1124
      3 C          62.7046   90.9236   11.1520 C.3     1  UNL1        0.1149
      4 N          62.6746   89.4262   11.2354 N.am    1  UNL1       -0.2747
      5 C          61.8298   88.6385   10.2785 C.2     1  UNL1        0.2442
      6 O          61.0147   89.3481    9.2382 O.2     1  UNL1       -0.2731
      7 C          63.4897   88.7166   12.2756 C.3     1  UNL1        0.1149
      8 C          64.3346   89.5044   13.2325 C.3     1  UNL1        0.1124
      9 C          66.2845   92.6967   13.5855 C.ar    1  UNL1        0.0078
     10 C          67.1294   93.4844   14.5424 C.ar    1  UNL1       -0.0016
     11 C          66.8991   93.3649   16.0198 C.ar    1  UNL1        0.0021
     12 C          65.8239   92.4577   16.5403 C.ar    1  UNL1        0.0309
     13 C          64.9791   91.6700   15.5834 C.ar    1  UNL1        0.1530
     14 F          63.9039   90.7627   16.1039 F       1  UNL1       -0.2029
     15 C          65.2094   91.7895   14.1060 C.ar    1  UNL1        0.0730
     16 C          66.5148   92.8162   12.1081 C.3     1  UNL1        0.0814
     17 N          67.6069   92.0238   11.4528 N.3     1  UNL1       -0.2679
     18 C          68.7385   91.4831   12.2757 C.3     1  UNL1        0.0899
     19 C          67.5674   91.7721    9.9746 C.3     1  UNL1        0.0894
     20 C          68.6500   92.3184    9.0916 C.3     1  UNL1        0.0827
     21 N          69.5615   93.3952    9.6012 N.3     1  UNL1       -0.3200
     22 H          69.0247   94.2478    9.7605 H       1  UNL1        0.1189
     23 H          70.2916   93.5768    8.9124 H       1  UNL1        0.1189
     24 C          65.6531   93.7280   11.2860 C.3     1  UNL1        0.0205
     25 C          66.2580   96.1851   11.8750 C.3     1  UNL1        0.0001
     26 C          66.1681   95.0743   10.8710 C.3     1  UNL1        0.0017
     27 C          66.5932   95.3098    9.4519 C.3     1  UNL1        0.0001
     28 C          61.7999   87.1412   10.3619 C.3     1  UNL1        0.1564
     29 N          61.8615   86.3188    9.1089 N.am    1  UNL1       -0.2727
     30 C          63.0759   85.6222    8.5703 C.3     1  UNL1        0.0943
     31 C          62.6845   84.9216    7.3031 C.3     1  UNL1        0.0311
     32 C          61.2282   85.1851    7.0585 C.3     1  UNL1        0.0870
     33 C          60.7195   86.0486    8.1746 C.2     1  UNL1        0.2260
     34 O          59.3155   86.5533    8.3291 O.2     1  UNL1       -0.2749
     35 C          61.7084   86.4661   11.6983 C.3     1  UNL1        0.0564
     36 C          62.4607   85.1927   11.9484 C.ar    1  UNL1       -0.0094
     37 C          62.2333   84.0015   11.0656 C.ar    1  UNL1       -0.0025
     38 C          62.9856   82.7281   11.3157 C.ar    1  UNL1        0.0111
     39 C          63.9654   82.6460   12.4486 C.ar    1  UNL1        0.0585
     40 CL         64.7177   81.3727   12.6987 Cl      1  UNL1       -0.0822
     41 C          64.1928   83.8372   13.3314 C.ar    1  UNL1        0.0225
     42 C          63.4404   85.1106   13.0813 C.ar    1  UNL1        0.0546
     43 CL         63.6678   86.3018   13.9640 Cl      1  UNL1       -0.0825
@<TRIPOS>BOND
     1    25    26    1
     2    26    27    1
     3    26    24    1
     4    16    24    1
     5    16     9    1
     6     9    10   ar
     7    10    11   ar
     8    11    12   ar
     9    12    13   ar
    10    13    14    1
    11    13    15   ar
    12    15     1    1
    13     1     2    1
    14     2     3    1
    15     3     4    1
    16     4     5   am
    17     5     6    2
    18     5    28    1
    19    28    35    1
    20    35    36    1
    21    36    37   ar
    22    37    38   ar
    23    38    39   ar
    24    39    40    1
    25    39    41   ar
    26    41    42   ar
    27    42    43    1
    28    28    29    1
    29    29    30    1
    30    30    31    1
    31    31    32    1
    32    32    33    1
    33    33    34    2
    34     4     7    1
    35     7     8    1
    36    16    17    1
    37    17    18    1
    38    17    19    1
    39    19    20    1
    40    20    21    1
    41    15     9   ar
    42     8     1    1
    43    42    36   ar
    44    33    29   am
    45    21    22    1
    46    21    23    1
@<TRIPOS>MOLECULE
*****
 43 46 0 0 0
SMALL
GASTEIGER

@<TRIPOS>ATOM
      1 N          61.5453   88.9975   10.3731 N.pl3   1  UNL1       -0.3025
      2 C          61.0161   89.2518   11.7534 C.3     1  UNL1        0.1124
      3 C          61.8567   89.9863   12.7553 C.3     1  UNL1        0.1149
      4 N          63.2264   90.4667   12.3769 N.am    1  UNL1       -0.2747
      5 C          64.0670   91.2012   13.3788 C.2     1  UNL1        0.2442
      6 O          63.5378   91.4555   14.7592 O.2     1  UNL1       -0.2731
      7 C          63.7556   90.2124   10.9966 C.3     1  UNL1        0.1149
      8 C          62.9150   89.4778    9.9946 C.3     1  UNL1        0.1124
      9 C          60.7672   86.7662    9.2931 C.ar    1  UNL1        0.0078
     10 C          59.9266   86.0317    8.2912 C.ar    1  UNL1       -0.0016
     11 C          59.0235   86.7938    7.3673 C.ar    1  UNL1        0.0021
     12 C          58.9610   88.2905    7.4453 C.ar    1  UNL1        0.0309
     13 C          59.8016   89.0250    8.4472 C.ar    1  UNL1        0.1530
     14 F          59.7391   90.5217    8.5253 F       1  UNL1       -0.2029
     15 C          60.7047   88.2629    9.3711 C.ar    1  UNL1        0.0730
     16 C          61.6703   86.0041   10.2170 C.3     1  UNL1        0.0814
     17 N          62.7468   85.1232    9.6557 N.3     1  UNL1       -0.2679
     18 C          63.4843   85.5367    8.4167 C.3     1  UNL1        0.0899
     19 C          63.0858   83.8286   10.3335 C.3     1  UNL1        0.0894
     20 C          64.4896   83.3023   10.2858 C.3     1  UNL1        0.0827
     21 N          65.0042   82.4366   11.3975 N.3     1  UNL1       -0.3200
     22 H          65.0557   82.9825   12.2575 H       1  UNL1        0.1189
     23 H          65.9336   82.0917   11.1575 H       1  UNL1        0.1189
     24 C          61.4970   86.1230   11.7022 C.3     1  UNL1        0.0205
     25 C          62.7709   84.4885   13.2692 C.3     1  UNL1        0.0001
     26 C          62.6498   85.8341   12.6174 C.3     1  UNL1        0.0017
     27 C          63.6815   86.8906   12.8807 C.3     1  UNL1        0.0001
     28 C          65.4366   91.6816   13.0004 C.3     1  UNL1        0.1564
     29 N          66.3903   92.1413   14.0629 N.am    1  UNL1       -0.2727
     30 C          66.0144   92.7356   15.3879 C.3     1  UNL1        0.0943
     31 C          67.2792   93.0491   16.1309 C.3     1  UNL1        0.0311
     32 C          68.4368   92.6486   15.2652 C.3     1  UNL1        0.0870
     33 C          67.8875   92.0875   13.9871 C.2     1  UNL1        0.2260
     34 O          68.6937   91.5646   12.8354 O.2     1  UNL1       -0.2749
     35 C          65.8526   91.7021   11.5593 C.3     1  UNL1        0.0564
     36 C          66.2849   92.9892   10.9218 C.ar    1  UNL1       -0.0094
     37 C          65.6183   94.2771   11.3054 C.ar    1  UNL1       -0.0025
     38 C          66.0505   95.5643   10.6678 C.ar    1  UNL1        0.0111
     39 C          67.1494   95.5635    9.6467 C.ar    1  UNL1        0.0585
     40 CL         67.5816   96.8506    9.0092 Cl      1  UNL1       -0.0822
     41 C          67.8159   94.2756    9.2632 C.ar    1  UNL1        0.0225
     42 C          67.3837   92.9885    9.9007 C.ar    1  UNL1        0.0546
     43 CL         68.0502   91.7007    9.5172 Cl      1  UNL1       -0.0825
@<TRIPOS>BOND
     1    25    26    1
     2    26    27    1
     3    26    24    1
     4    16    24    1
     5    16     9    1
     6     9    10   ar
     7    10    11   ar
     8    11    12   ar
     9    12    13   ar
    10    13    14    1
    11    13    15   ar
    12    15     1    1
    13     1     2    1
    14     2     3    1
    15     3     4    1
    16     4     5   am
    17     5     6    2
    18     5    28    1
    19    28    35    1
    20    35    36    1
    21    36    37   ar
    22    37    38   ar
    23    38    39   ar
    24    39    40    1
    25    39    41   ar
    26    41    42   ar
    27    42    43    1
    28    28    29    1
    29    29    30    1
    30    30    31    1
    31    31    32    1
    32    32    33    1
    33    33    34    2
    34     4     7    1
    35     7     8    1
    36    16    17    1
    37    17    18    1
    38    17    19    1
    39    19    20    1
    40    20    21    1
    41    15     9   ar
    42     8     1    1
    43    42    36   ar
    44    33    29   am
    45    21    22    1
    46    21    23    1
@<TRIPOS>MOLECULE
*****
 43 46 0 0 0
SMALL
GASTEIGER

@<TRIPOS>ATOM
      1 N          61.3963   88.8987   10.3529 N.pl3   1  UNL1       -0.3025
      2 C          60.7621   89.1852   11.6817 C.3     1  UNL1        0.1124
      3 C          61.5404   89.9013   12.7454 C.3     1  UNL1        0.1149
      4 N          62.9529   90.3309   12.4803 N.am    1  UNL1       -0.2747
      5 C          63.7312   91.0470   13.5440 C.2     1  UNL1        0.2442
      6 O          63.0970   91.3336   14.8727 O.2     1  UNL1       -0.2731
      7 C          63.5871   90.0444   11.1515 C.3     1  UNL1        0.1149
      8 C          62.8088   89.3282   10.0878 C.3     1  UNL1        0.1124
      9 C          60.7198   86.6915    9.1609 C.ar    1  UNL1        0.0078
     10 C          59.9414   85.9755    8.0972 C.ar    1  UNL1       -0.0016
     11 C          59.0613   86.7504    7.1619 C.ar    1  UNL1        0.0021
     12 C          58.9595   88.2414    7.2902 C.ar    1  UNL1        0.0309
     13 C          59.7378   88.9575    8.3539 C.ar    1  UNL1        0.1530
     14 F          59.6360   90.4486    8.4822 F       1  UNL1       -0.2029
     15 C          60.6180   88.1825    9.2892 C.ar    1  UNL1        0.0730
     16 C          61.5999   85.9166   10.0962 C.3     1  UNL1        0.0814
     17 N          62.7118   85.0701    9.5513 N.3     1  UNL1       -0.2679
     18 C          63.5172   85.5521    8.3812 C.3     1  UNL1        0.0899
     19 C          63.0184   83.7415   10.1765 C.3     1  UNL1        0.0894
     20 C          64.4207   83.2093   10.1572 C.3     1  UNL1        0.0827
     21 N          65.0595   82.7324   11.4279 N.3     1  UNL1       -0.3200
     22 H          65.1850   83.5213   12.0622 H       1  UNL1        0.1189
     23 H          65.9672   82.3177   11.2173 H       1  UNL1        0.1189
     24 C          61.3681   85.9882   11.5764 C.3     1  UNL1        0.0205
     25 C          62.5897   84.4479   13.2750 C.3     1  UNL1        0.0001
     26 C          62.5034   85.7447   12.5260 C.3     1  UNL1        0.0017
     27 C          63.5524   86.7979   12.7267 C.3     1  UNL1        0.0001
     28 C          65.1437   91.4766   13.2788 C.3     1  UNL1        0.1564
     29 N          65.4289   92.5103   12.2300 N.am    1  UNL1       -0.2727
     30 C          65.2947   92.3228   10.7478 C.3     1  UNL1        0.0943
     31 C          65.6813   93.6096   10.0809 C.3     1  UNL1        0.0311
     32 C          66.0545   94.5924   11.1509 C.3     1  UNL1        0.0870
     33 C          65.8985   93.9130   12.4792 C.2     1  UNL1        0.2260
     34 O          66.1652   94.5282   13.8208 O.2     1  UNL1       -0.2749
     35 C          66.2710   90.8725   14.0626 C.3     1  UNL1        0.0564
     36 C          67.3319   91.7542   14.6517 C.ar    1  UNL1       -0.0094
     37 C          67.1306   92.3678   16.0056 C.ar    1  UNL1       -0.0025
     38 C          68.1915   93.2496   16.5947 C.ar    1  UNL1        0.0111
     39 C          69.4537   93.5177   15.8298 C.ar    1  UNL1        0.0585
     40 CL         70.5146   94.3994   16.4189 Cl      1  UNL1       -0.0822
     41 C          69.6550   92.9041   14.4760 C.ar    1  UNL1        0.0225
     42 C          68.5941   92.0223   13.8869 C.ar    1  UNL1        0.0546
     43 CL         68.7954   91.4087   12.5331 Cl      1  UNL1       -0.0825
@<TRIPOS>BOND
     1    25    26    1
     2    26    27    1
     3    26    24    1
     4    16    24    1
     5    16     9    1
     6     9    10   ar
     7    10    11   ar
     8    11    12   ar
     9    12    13   ar
    10    13    14    1
    11    13    15   ar
    12    15     1    1
    13     1     2    1
    14     2     3    1
    15     3     4    1
    16     4     5   am
    17     5     6    2
    18     5    28    1
    19    28    35    1
    20    35    36    1
    21    36    37   ar
    22    37    38   ar
    23    38    39   ar
    24    39    40    1
    25    39    41   ar
    26    41    42   ar
    27    42    43    1
    28    28    29    1
    29    29    30    1
    30    30    31    1
    31    31    32    1
    32    32    33    1
    33    33    34    2
    34     4     7    1
    35     7     8    1
    36    16    17    1
    37    17    18    1
    38    17    19    1
    39    19    20    1
    40    20    21    1
    41    15     9   ar
    42     8     1    1
    43    42    36   ar
    44    33    29   am
    45    21    22    1
    46    21    23    1
@<TRIPOS>MOLECULE
*****
 43 46 0 0 0
SMALL
GASTEIGER

@<TRIPOS>ATOM
      1 N          62.6599   89.2599   12.0589 N.pl3   1  UNL1       -0.3025
      2 C          62.2460   89.3993   13.4939 C.3     1  UNL1        0.1124
      3 C          62.9700   90.3564   14.3937 C.3     1  UNL1        0.1149
      4 N          64.1080   91.1741   13.8586 N.am    1  UNL1       -0.2747
      5 C          64.8321   92.1311   14.7584 C.2     1  UNL1        0.2442
      6 O          64.4181   92.2706   16.1934 O.2     1  UNL1       -0.2731
      7 C          64.5220   91.0346   12.4236 C.3     1  UNL1        0.1149
      8 C          63.7979   90.0775   11.5237 C.3     1  UNL1        0.1124
      9 C          62.1091   86.8241   11.3421 C.ar    1  UNL1        0.0078
     10 C          61.3850   85.8670   10.4423 C.ar    1  UNL1       -0.0016
     11 C          60.4877   86.3886    9.3594 C.ar    1  UNL1        0.0021
     12 C          60.3144   87.8673    9.1762 C.ar    1  UNL1        0.0309
     13 C          61.0385   88.8243   10.0761 C.ar    1  UNL1        0.1530
     14 F          60.8653   90.3030    9.8930 F       1  UNL1       -0.2029
     15 C          61.9358   88.3027   11.1590 C.ar    1  UNL1        0.0730
     16 C          63.0064   86.3025   12.4251 C.3     1  UNL1        0.0814
     17 N          63.1477   84.8240   12.6348 N.3     1  UNL1       -0.2679
     18 C          64.0631   84.0257   11.7545 C.3     1  UNL1        0.0899
     19 C          62.3736   84.1437   13.7247 C.3     1  UNL1        0.0894
     20 C          62.9896   83.0065   14.4846 C.3     1  UNL1        0.0827
     21 N          62.1741   81.7887   14.8037 N.3     1  UNL1       -0.3200
     22 H          61.4259   82.0401   15.4496 H       1  UNL1        0.1189
     23 H          62.7715   81.0825   15.2337 H       1  UNL1        0.1189
     24 C          63.7625   87.2594   13.2983 C.3     1  UNL1        0.0205
     25 C          65.4761   85.8674   14.6679 C.3     1  UNL1        0.0001
     26 C          64.3033   86.8014   14.6203 C.3     1  UNL1        0.0017
     27 C          63.6713   87.2772   15.8947 C.3     1  UNL1        0.0001
     28 C          65.9700   92.9488   14.2232 C.3     1  UNL1        0.1564
     29 N          67.2659   93.0136   14.9758 N.am    1  UNL1       -0.2727
     30 C          68.0029   94.2634   15.3565 C.3     1  UNL1        0.0943
     31 C          69.2449   93.8623   16.0958 C.3     1  UNL1        0.0311
     32 C          69.2755   92.3645   16.1720 C.3     1  UNL1        0.0870
     33 C          68.0525   91.8400   15.4798 C.2     1  UNL1        0.2260
     34 O          67.6813   90.3956   15.3198 O.2     1  UNL1       -0.2749
     35 C          65.8121   93.7016   12.9354 C.3     1  UNL1        0.0564
     36 C          66.6364   93.3245   11.7403 C.ar    1  UNL1       -0.0094
     37 C          67.5441   92.1319   11.8014 C.ar    1  UNL1       -0.0025
     38 C          68.3684   91.7547   10.6063 C.ar    1  UNL1        0.0111
     39 C          68.2849   92.5702    9.3500 C.ar    1  UNL1        0.0585
     40 CL         69.1092   92.1931    8.1549 Cl      1  UNL1       -0.0822
     41 C          67.3772   93.7628    9.2890 C.ar    1  UNL1        0.0225
     42 C          66.5529   94.1399   10.4841 C.ar    1  UNL1        0.0546
     43 CL         65.6452   95.3325   10.4231 Cl      1  UNL1       -0.0825
@<TRIPOS>BOND
     1    25    26    1
     2    26    27    1
     3    26    24    1
     4    16    24    1
     5    16     9    1
     6     9    10   ar
     7    10    11   ar
     8    11    12   ar
     9    12    13   ar
    10    13    14    1
    11    13    15   ar
    12    15     1    1
    13     1     2    1
    14     2     3    1
    15     3     4    1
    16     4     5   am
    17     5     6    2
    18     5    28    1
    19    28    35    1
    20    35    36    1
    21    36    37   ar
    22    37    38   ar
    23    38    39   ar
    24    39    40    1
    25    39    41   ar
    26    41    42   ar
    27    42    43    1
    28    28    29    1
    29    29    30    1
    30    30    31    1
    31    31    32    1
    32    32    33    1
    33    33    34    2
    34     4     7    1
    35     7     8    1
    36    16    17    1
    37    17    18    1
    38    17    19    1
    39    19    20    1
    40    20    21    1
    41    15     9   ar
    42     8     1    1
    43    42    36   ar
    44    33    29   am
    45    21    22    1
    46    21    23    1
@<TRIPOS>MOLECULE
*****
 43 46 0 0 0
SMALL
GASTEIGER

@<TRIPOS>ATOM
      1 N          63.4615   85.5154   13.9835 N.pl3   1  UNL1       -0.3025
      2 C          62.9092   85.8845   15.3284 C.3     1  UNL1        0.1124
      3 C          63.0512   87.2881   15.8380 C.3     1  UNL1        0.1149
      4 N          63.7456   88.3227   15.0028 N.am    1  UNL1       -0.2747
      5 C          63.8876   89.7262   15.5124 C.2     1  UNL1        0.2442
      6 O          63.3352   90.0953   16.8573 O.2     1  UNL1       -0.2731
      7 C          64.2979   87.9536   13.6579 C.3     1  UNL1        0.1149
      8 C          64.1559   86.5499   13.1483 C.3     1  UNL1        0.1124
      9 C          62.7287   83.8624   12.1179 C.ar    1  UNL1        0.0078
     10 C          62.5867   82.4588   11.6084 C.ar    1  UNL1       -0.0016
     11 C          63.0355   81.3046   12.4548 C.ar    1  UNL1        0.0021
     12 C          63.6263   81.5540   13.8108 C.ar    1  UNL1        0.0309
     13 C          63.7683   82.9576   14.3203 C.ar    1  UNL1        0.1530
     14 F          64.3591   83.2071   15.6764 F       1  UNL1       -0.2029
     15 C          63.3195   84.1118   13.4739 C.ar    1  UNL1        0.0730
     16 C          62.2800   85.0166   11.2715 C.3     1  UNL1        0.0814
     17 N          62.6999   85.1003    9.8339 N.3     1  UNL1       -0.2679
     18 C          63.8528   84.2774    9.3402 C.3     1  UNL1        0.0899
     19 C          61.9670   86.0070    8.8901 C.3     1  UNL1        0.0894
     20 C          61.2824   85.4377    7.6828 C.3     1  UNL1        0.0827
     21 N          59.8341   85.7361    7.4316 N.3     1  UNL1       -0.3200
     22 H          59.2671   85.3113    8.1654 H       1  UNL1        0.1189
     23 H          59.5603   85.3539    6.5263 H       1  UNL1        0.1189
     24 C          61.4113   86.0870   11.8626 C.3     1  UNL1        0.0205
     25 C          59.9100   87.7430   10.5382 C.3     1  UNL1        0.0001
     26 C          61.2364   87.3925   11.1448 C.3     1  UNL1        0.0017
     27 C          62.3878   88.3473   11.0335 C.3     1  UNL1        0.0001
     28 C          64.5819   90.7607   14.6772 C.3     1  UNL1        0.1564
     29 N          65.8449   91.4006   15.1727 N.am    1  UNL1       -0.2727
     30 C          67.2285   91.1354   14.6577 C.3     1  UNL1        0.0943
     31 C          68.1848   91.9888   15.4369 C.3     1  UNL1        0.0311
     32 C          67.3921   92.7815   16.4336 C.3     1  UNL1        0.0870
     33 C          65.9460   92.4180   16.2703 C.2     1  UNL1        0.2260
     34 O          64.8019   92.9742   17.0651 O.2     1  UNL1       -0.2749
     35 C          64.0133   91.1554   13.3464 C.3     1  UNL1        0.0564
     36 C          64.7402   92.1441   12.4837 C.ar    1  UNL1       -0.0094
     37 C          65.6641   93.1475   13.1080 C.ar    1  UNL1       -0.0025
     38 C          66.3910   94.1362   12.2453 C.ar    1  UNL1        0.0111
     39 C          66.1940   94.1214   10.7583 C.ar    1  UNL1        0.0585
     40 CL         66.9208   95.1100    9.8956 Cl      1  UNL1       -0.0822
     41 C          65.2701   93.1180   10.1341 C.ar    1  UNL1        0.0225
     42 C          64.5432   92.1294   10.9968 C.ar    1  UNL1        0.0546
     43 CL         63.6194   91.1260   10.3726 Cl      1  UNL1       -0.0825
@<TRIPOS>BOND
     1    25    26    1
     2    26    27    1
     3    26    24    1
     4    16    24    1
     5    16     9    1
     6     9    10   ar
     7    10    11   ar
     8    11    12   ar
     9    12    13   ar
    10    13    14    1
    11    13    15   ar
    12    15     1    1
    13     1     2    1
    14     2     3    1
    15     3     4    1
    16     4     5   am
    17     5     6    2
    18     5    28    1
    19    28    35    1
    20    35    36    1
    21    36    37   ar
    22    37    38   ar
    23    38    39   ar
    24    39    40    1
    25    39    41   ar
    26    41    42   ar
    27    42    43    1
    28    28    29    1
    29    29    30    1
    30    30    31    1
    31    31    32    1
    32    32    33    1
    33    33    34    2
    34     4     7    1
    35     7     8    1
    36    16    17    1
    37    17    18    1
    38    17    19    1
    39    19    20    1
    40    20    21    1
    41    15     9   ar
    42     8     1    1
    43    42    36   ar
    44    33    29   am
    45    21    22    1
    46    21    23    1
