@<TRIPOS>MOLECULE
*****
 32 36 0 0 0
SMALL
GASTEIGER

@<TRIPOS>ATOM
      1 C          56.9560   92.7849   -3.9711 C.3     1  UNL1        0.0295
      2 C          58.3311   93.3464   -3.7616 C.3     1  UNL1        0.1094
      3 C          58.4834   93.2011   -2.2764 C.ar    1  UNL1        0.0013
      4 C          57.6313   92.6693   -1.1103 C.ar    1  UNL1       -0.0016
      5 C          57.8730   92.5637    0.3663 C.ar    1  UNL1        0.0131
      6 C          59.1706   93.0388    0.9498 C.ar    1  UNL1        0.1028
      7 C          60.2266   93.6195    0.0567 C.ar    1  UNL1        0.1545
      8 C          59.1490   93.2970   -0.9356 C.ar    1  UNL1        0.0357
      9 O          61.5522   94.1195    0.5495 O.3     1  UNL1       -0.4528
     10 C          63.1663   94.8541    0.2628 C.ar    1  UNL1        0.1451
     11 C          64.0550   95.0674    1.4522 C.ar    1  UNL1        0.0375
     12 C          65.4138   95.6770    1.2734 C.ar    1  UNL1        0.0029
     13 C          65.8840   96.0732   -0.0948 C.ar    1  UNL1       -0.0024
     14 C          64.9953   95.8600   -1.2842 C.ar    1  UNL1        0.0007
     15 C          63.6365   95.2504   -1.1054 C.ar    1  UNL1        0.0349
     16 C          65.3796   96.2243   -2.6876 C.3     1  UNL1        0.1203
     17 N          65.2274   96.3696   -4.1727 N.am    1  UNL1       -0.2743
     18 C          65.9570   96.8560   -5.3897 C.3     1  UNL1        0.0957
     19 C          65.0684   96.6427   -6.5791 C.3     1  UNL1        0.0466
     20 C          63.4841   95.9512   -6.5059 C.3     1  UNL1        0.1337
     21 N          62.1585   95.4512   -6.9987 N.3     1  UNL1       -0.2863
     22 C          60.7868   94.8499   -6.9169 C.3     1  UNL1        0.1151
     23 C          59.5777   94.2387   -6.2730 C.ar    1  UNL1        0.0738
     24 C          58.8193   94.0952   -7.5592 C.ar    1  UNL1        0.1147
     25 N          57.4882   93.4785   -7.2460 N.ar    1  UNL1       -0.2226
     26 C          57.4241   93.2409   -5.7663 C.ar    1  UNL1        0.1786
     27 N          58.7154   93.7108   -5.1650 N.ar    1  UNL1       -0.3092
     28 C          64.5618   96.2737   -5.5136 C.2     1  UNL1        0.2402
     29 O          65.2206   96.6006   -5.8211 O.2     1  UNL1       -0.2734
     30 H          62.5312   94.7945   -7.6845 H       1  UNL1        0.1240
     31 C          59.4122   92.9331    2.4265 C.1     1  UNL1        0.1035
     32 N          59.6538   92.8275    3.9031 N.1     1  UNL1       -0.1907
@<TRIPOS>BOND
     1     1     2    1
     2     2     3    1
     3     3     4   ar
     4     4     5   ar
     5     5     6   ar
     6     6    31    1
     7    31    32    3
     8     6     7   ar
     9     7     8   ar
    10     7     9    1
    11     9    10    1
    12    10    11   ar
    13    11    12   ar
    14    12    13   ar
    15    13    14   ar
    16    14    15   ar
    17    14    16    1
    18    16    17    1
    19    17    18    1
    20    18    19    1
    21    19    20    1
    22    20    21    1
    23    21    22    1
    24    22    23    1
    25    23    24   ar
    26    24    25   ar
    27    25    26   ar
    28    26    27   ar
    29    20    28    1
    30    28    29    2
    31    27     2    1
    32     8     3   ar
    33    15    10   ar
    34    28    17   am
    35    27    23   ar
    36    21    30    1
@<TRIPOS>MOLECULE
*****
 32 36 0 0 0
SMALL
GASTEIGER

@<TRIPOS>ATOM
      1 C          58.2626   93.4512   -6.7684 C.3     1  UNL1        0.0295
      2 C          58.9688   93.6092   -5.4545 C.3     1  UNL1        0.1094
      3 C          60.2616   94.2330   -5.8902 C.ar    1  UNL1        0.0013
      4 C          60.9006   94.6724   -7.2195 C.ar    1  UNL1       -0.0016
      5 C          62.2208   95.2972   -7.5610 C.ar    1  UNL1        0.0131
      6 C          63.2077   95.6063   -6.4745 C.ar    1  UNL1        0.1028
      7 C          62.8744   95.2906   -5.0465 C.ar    1  UNL1        0.1545
      8 C          61.6330   94.8234   -5.7469 C.ar    1  UNL1        0.0357
      9 O          63.7967   95.5636   -3.8955 O.3     1  UNL1       -0.4528
     10 C          64.1831   95.5282   -2.1414 C.ar    1  UNL1        0.1451
     11 C          65.5151   96.0673   -1.7113 C.ar    1  UNL1        0.0375
     12 C          65.8924   96.0635   -0.2596 C.ar    1  UNL1        0.0029
     13 C          64.9378   95.5205    0.7621 C.ar    1  UNL1       -0.0024
     14 C          63.6058   94.9813    0.3320 C.ar    1  UNL1        0.0007
     15 C          63.2285   94.9851   -1.1198 C.ar    1  UNL1        0.0349
     16 C          62.5886   94.4193    1.2804 C.3     1  UNL1        0.1203
     17 N          61.2959   93.7955    1.7161 N.am    1  UNL1       -0.2743
     18 C          60.5672   93.3287    2.9413 C.3     1  UNL1        0.0957
     19 C          59.2353   92.7895    2.5112 C.3     1  UNL1        0.0466
     20 C          58.6830   92.7379    0.8724 C.3     1  UNL1        0.1337
     21 N          57.7607   92.4649   -0.2786 N.3     1  UNL1       -0.2863
     22 C          57.2978   92.4279   -1.7050 C.3     1  UNL1        0.1151
     23 C          57.3649   92.6323   -3.1894 C.ar    1  UNL1        0.0738
     24 C          56.0029   92.0598   -3.4487 C.ar    1  UNL1        0.1147
     25 N          55.7480   92.1208   -4.9257 N.ar    1  UNL1       -0.2226
     26 C          56.9524   92.7310   -5.5791 C.ar    1  UNL1        0.1786
     27 N          57.9516   93.0472   -4.5061 N.ar    1  UNL1       -0.3092
     28 C          59.9244   93.2051    1.5728 C.2     1  UNL1        0.2402
     29 O          59.9239   93.1117    2.3645 O.2     1  UNL1       -0.2734
     30 H          56.9631   92.9847    0.0875 H       1  UNL1        0.1240
     31 C          64.5280   96.2312   -6.8160 C.1     1  UNL1        0.1035
     32 N          65.8482   96.8559   -7.1575 N.1     1  UNL1       -0.1907
@<TRIPOS>BOND
     1     1     2    1
     2     2     3    1
     3     3     4   ar
     4     4     5   ar
     5     5     6   ar
     6     6    31    1
     7    31    32    3
     8     6     7   ar
     9     7     8   ar
    10     7     9    1
    11     9    10    1
    12    10    11   ar
    13    11    12   ar
    14    12    13   ar
    15    13    14   ar
    16    14    15   ar
    17    14    16    1
    18    16    17    1
    19    17    18    1
    20    18    19    1
    21    19    20    1
    22    20    21    1
    23    21    22    1
    24    22    23    1
    25    23    24   ar
    26    24    25   ar
    27    25    26   ar
    28    26    27   ar
    29    20    28    1
    30    28    29    2
    31    27     2    1
    32     8     3   ar
    33    15    10   ar
    34    28    17   am
    35    27    23   ar
    36    21    30    1
@<TRIPOS>MOLECULE
*****
 32 36 0 0 0
SMALL
GASTEIGER

@<TRIPOS>ATOM
      1 C          60.4484   94.1409   -7.5407 C.3     1  UNL1        0.0295
      2 C          60.8573   94.3905   -6.1193 C.3     1  UNL1        0.1094
      3 C          62.2726   94.8540   -6.2989 C.ar    1  UNL1        0.0013
      4 C          63.2336   95.0858   -7.4785 C.ar    1  UNL1       -0.0016
      5 C          64.6546   95.5589   -7.5606 C.ar    1  UNL1        0.0131
      6 C          65.4020   95.9094   -6.3082 C.ar    1  UNL1        0.1028
      7 C          64.7284   95.7868   -4.9736 C.ar    1  UNL1        0.1545
      8 C          63.6318   95.3443   -5.8967 C.ar    1  UNL1        0.0357
      9 O          65.3951   96.1140   -3.6704 O.3     1  UNL1       -0.4528
     10 C          65.3759   96.2481   -1.8790 C.ar    1  UNL1        0.1451
     11 C          66.6278   96.7236   -1.2034 C.ar    1  UNL1        0.0375
     12 C          66.6704   96.8552    0.2902 C.ar    1  UNL1        0.0029
     13 C          65.4610   96.5112    1.1082 C.ar    1  UNL1       -0.0024
     14 C          64.2090   96.0357    0.4326 C.ar    1  UNL1        0.0007
     15 C          64.1665   95.9042   -1.0610 C.ar    1  UNL1        0.0349
     16 C          62.9534   95.6696    1.1669 C.3     1  UNL1        0.1203
     17 N          61.5382   95.2061    1.3466 N.am    1  UNL1       -0.2743
     18 C          60.5106   94.9425    2.4070 C.3     1  UNL1        0.0957
     19 C          59.2587   94.4670    1.7314 C.3     1  UNL1        0.0466
     20 C          59.0823   94.2733    0.0213 C.3     1  UNL1        0.1337
     21 N          58.4156   93.9460   -1.2820 N.3     1  UNL1       -0.2863
     22 C          58.2803   93.7838   -2.7671 C.3     1  UNL1        0.1151
     23 C          58.6967   93.8113   -4.2078 C.ar    1  UNL1        0.0738
     24 C          57.3742   93.3247   -4.7219 C.ar    1  UNL1        0.1147
     25 N          57.4619   93.2369   -6.2168 N.ar    1  UNL1       -0.2226
     26 C          58.8385   93.6694   -6.6265 C.ar    1  UNL1        0.1786
     27 N          59.6016   94.0243   -5.3849 N.ar    1  UNL1       -0.3092
     28 C          60.1788   94.7157    0.9443 C.2     1  UNL1        0.2402
     29 O          59.9925   94.7137    1.7193 O.2     1  UNL1       -0.2734
     30 H          57.6155   94.5669   -1.1608 H       1  UNL1        0.1240
     31 C          66.8231   96.3826   -6.3904 C.1     1  UNL1        0.1035
     32 N          68.2441   96.8557   -6.4726 N.1     1  UNL1       -0.1907
@<TRIPOS>BOND
     1     1     2    1
     2     2     3    1
     3     3     4   ar
     4     4     5   ar
     5     5     6   ar
     6     6    31    1
     7    31    32    3
     8     6     7   ar
     9     7     8   ar
    10     7     9    1
    11     9    10    1
    12    10    11   ar
    13    11    12   ar
    14    12    13   ar
    15    13    14   ar
    16    14    15   ar
    17    14    16    1
    18    16    17    1
    19    17    18    1
    20    18    19    1
    21    19    20    1
    22    20    21    1
    23    21    22    1
    24    22    23    1
    25    23    24   ar
    26    24    25   ar
    27    25    26   ar
    28    26    27   ar
    29    20    28    1
    30    28    29    2
    31    27     2    1
    32     8     3   ar
    33    15    10   ar
    34    28    17   am
    35    27    23   ar
    36    21    30    1
