@<TRIPOS>MOLECULE
*****
 25 27 0 0 0
SMALL
GASTEIGER

@<TRIPOS>ATOM
      1 O          62.3408   85.9711   17.6941 O.2     1  UNL1       -0.2699
      2 C          63.0782   86.2732   16.4232 C.2     1  UNL1        0.2491
      3 N          63.4795   87.6832   16.1060 N.am    1  UNL1       -0.2754
      4 C          64.2168   87.9853   14.8351 C.3     1  UNL1        0.0981
      5 C          64.6182   89.3954   14.5179 C.3     1  UNL1        0.0442
      6 C          64.2821   90.5034   15.4715 C.2     1  UNL1       -0.0326
      7 C          64.6834   91.9134   15.1542 C.2     1  UNL1        0.0412
      8 C          63.5448   90.2013   16.7423 C.3     1  UNL1        0.0442
      9 C          63.1435   88.7913   17.0596 C.3     1  UNL1        0.0981
     10 C          63.4142   85.1651   15.4696 C.ar    1  UNL1        0.0544
     11 C          64.7048   85.1984   14.7060 C.ar    1  UNL1        0.0046
     12 C          65.0408   84.0904   13.7524 C.ar    1  UNL1        0.0010
     13 C          64.0862   82.9490   13.5625 C.ar    1  UNL1        0.0114
     14 C          62.7956   82.9157   14.3262 C.ar    1  UNL1        0.0578
     15 CL         61.8410   81.7744   14.1363 Cl      1  UNL1       -0.0822
     16 C          62.4596   84.0238   15.2797 C.ar    1  UNL1        0.0159
     17 C          65.4208   92.2155   13.8833 C.1     1  UNL1       -0.0583
     18 C          66.1581   92.5175   12.6125 C.1     1  UNL1       -0.0404
     19 C          66.8955   92.8195   11.3416 C.ar    1  UNL1        0.1238
     20 C          67.6781   91.7404   10.6540 C.ar    1  UNL1        0.0277
     21 C          68.4155   92.0425    9.3831 C.ar    1  UNL1        0.0046
     22 C          68.3701   93.4236    8.7999 C.ar    1  UNL1        0.0308
     23 C          67.5874   94.5029    9.4875 C.ar    1  UNL1        0.1390
     24 CL         67.5421   95.8840    8.9042 Cl      1  UNL1       -0.0613
     25 N          66.8501   94.2008   10.7583 N.ar    1  UNL1       -0.2257
@<TRIPOS>BOND
     1     1     2    2
     2     2    10    1
     3    10    11   ar
     4    11    12   ar
     5    12    13   ar
     6    13    14   ar
     7    14    15    1
     8    14    16   ar
     9     2     3   am
    10     3     4    1
    11     4     5    1
    12     5     6    1
    13     6     7    2
    14     7    17    1
    15    17    18    3
    16    18    19    1
    17    19    20   ar
    18    20    21   ar
    19    21    22   ar
    20    22    23   ar
    21    23    24    1
    22    23    25   ar
    23     6     8    1
    24     8     9    1
    25    16    10   ar
    26     9     3    1
    27    25    19   ar
@<TRIPOS>MOLECULE
*****
 25 27 0 0 0
SMALL
GASTEIGER

@<TRIPOS>ATOM
      1 O          62.4361   84.4737   16.4310 O.2     1  UNL1       -0.2699
      2 C          63.0761   85.1434   15.2512 C.2     1  UNL1        0.2491
      3 N          63.3949   86.6082   15.3021 N.am    1  UNL1       -0.2754
      4 C          64.0350   87.2778   14.1223 C.3     1  UNL1        0.0981
      5 C          64.3538   88.7427   14.1731 C.3     1  UNL1        0.0442
      6 C          64.0326   89.5379   15.4037 C.2     1  UNL1       -0.0326
      7 C          64.3514   91.0027   15.4545 C.2     1  UNL1        0.0412
      8 C          63.3925   88.8683   16.5835 C.3     1  UNL1        0.0442
      9 C          63.0737   87.4034   16.5327 C.3     1  UNL1        0.0981
     10 C          63.3974   84.3481   14.0206 C.ar    1  UNL1        0.0544
     11 C          64.0868   83.0217   14.1435 C.ar    1  UNL1        0.0046
     12 C          64.4080   82.2265   12.9129 C.ar    1  UNL1        0.0010
     13 C          64.0397   82.7577   11.5593 C.ar    1  UNL1        0.0114
     14 C          63.3503   84.0842   11.4364 C.ar    1  UNL1        0.0578
     15 CL         62.9820   84.6154   10.0828 Cl      1  UNL1       -0.0822
     16 C          63.0291   84.8794   12.6670 C.ar    1  UNL1        0.0159
     17 C          64.9914   91.6723   14.2747 C.1     1  UNL1       -0.0583
     18 C          65.6315   92.3420   13.0949 C.1     1  UNL1       -0.0404
     19 C          66.2715   93.0116   11.9151 C.ar    1  UNL1        0.1238
     20 C          66.0668   94.4794   11.6836 C.ar    1  UNL1        0.0277
     21 C          66.7068   95.1490   10.5038 C.ar    1  UNL1        0.0046
     22 C          67.5516   94.3509    9.5555 C.ar    1  UNL1        0.0308
     23 C          67.7564   92.8830    9.7871 C.ar    1  UNL1        0.1390
     24 CL         68.6012   92.0849    8.8388 Cl      1  UNL1       -0.0613
     25 N          67.1164   92.2134   10.9669 N.ar    1  UNL1       -0.2257
@<TRIPOS>BOND
     1     1     2    2
     2     2    10    1
     3    10    11   ar
     4    11    12   ar
     5    12    13   ar
     6    13    14   ar
     7    14    15    1
     8    14    16   ar
     9     2     3   am
    10     3     4    1
    11     4     5    1
    12     5     6    1
    13     6     7    2
    14     7    17    1
    15    17    18    3
    16    18    19    1
    17    19    20   ar
    18    20    21   ar
    19    21    22   ar
    20    22    23   ar
    21    23    24    1
    22    23    25   ar
    23     6     8    1
    24     8     9    1
    25    16    10   ar
    26     9     3    1
    27    25    19   ar
@<TRIPOS>MOLECULE
*****
 25 27 0 0 0
SMALL
GASTEIGER

@<TRIPOS>ATOM
      1 O          64.4077   92.4776   16.3259 O.2     1  UNL1       -0.2699
      2 C          64.4486   91.3660   15.3196 C.2     1  UNL1        0.2491
      3 N          63.9940   89.9893   15.7039 N.am    1  UNL1       -0.2754
      4 C          64.0348   88.8777   14.6975 C.3     1  UNL1        0.0981
      5 C          63.5802   87.5009   15.0820 C.3     1  UNL1        0.0442
      6 C          63.0848   87.2356   16.4727 C.2     1  UNL1       -0.0326
      7 C          62.6302   85.8588   16.8570 C.2     1  UNL1        0.0412
      8 C          63.0440   88.3472   17.4791 C.3     1  UNL1        0.0442
      9 C          63.4985   89.7240   17.0947 C.3     1  UNL1        0.0981
     10 C          64.9440   91.6313   13.9288 C.ar    1  UNL1        0.0544
     11 C          66.3730   92.0286   13.7047 C.ar    1  UNL1        0.0046
     12 C          66.8683   92.2938   12.3139 C.ar    1  UNL1        0.0010
     13 C          65.9347   92.1619   11.1473 C.ar    1  UNL1        0.0114
     14 C          64.5058   91.7647   11.3714 C.ar    1  UNL1        0.0578
     15 CL         63.5722   91.6328   10.2048 Cl      1  UNL1       -0.0822
     16 C          64.0104   91.4994   12.7621 C.ar    1  UNL1        0.0159
     17 C          62.6710   84.7473   15.8507 C.1     1  UNL1       -0.0583
     18 C          62.7119   83.6357   14.8443 C.1     1  UNL1       -0.0404
     19 C          62.7527   82.5242   13.8379 C.ar    1  UNL1        0.1238
     20 C          62.2079   81.1721   14.1913 C.ar    1  UNL1        0.0277
     21 C          62.2488   80.0605   13.1850 C.ar    1  UNL1        0.0046
     22 C          62.8344   80.3011   11.8252 C.ar    1  UNL1        0.0308
     23 C          63.3792   81.6533   11.4716 C.ar    1  UNL1        0.1390
     24 CL         63.9648   81.8938   10.1118 Cl      1  UNL1       -0.0613
     25 N          63.3384   82.7648   12.4780 N.ar    1  UNL1       -0.2257
@<TRIPOS>BOND
     1     1     2    2
     2     2    10    1
     3    10    11   ar
     4    11    12   ar
     5    12    13   ar
     6    13    14   ar
     7    14    15    1
     8    14    16   ar
     9     2     3   am
    10     3     4    1
    11     4     5    1
    12     5     6    1
    13     6     7    2
    14     7    17    1
    15    17    18    3
    16    18    19    1
    17    19    20   ar
    18    20    21   ar
    19    21    22   ar
    20    22    23   ar
    21    23    24    1
    22    23    25   ar
    23     6     8    1
    24     8     9    1
    25    16    10   ar
    26     9     3    1
    27    25    19   ar
@<TRIPOS>MOLECULE
*****
 25 27 0 0 0
SMALL
GASTEIGER

@<TRIPOS>ATOM
      1 O          62.7714   82.7685   15.6461 O.2     1  UNL1       -0.2699
      2 C          63.2159   83.7160   14.5715 C.2     1  UNL1        0.2491
      3 N          63.4051   85.1705   14.8853 N.am    1  UNL1       -0.2754
      4 C          63.8496   86.1179   13.8107 C.3     1  UNL1        0.0981
      5 C          64.0388   87.5725   14.1245 C.3     1  UNL1        0.0442
      6 C          63.7835   88.0796   15.5129 C.2     1  UNL1       -0.0326
      7 C          63.9727   89.5342   15.8266 C.2     1  UNL1        0.0412
      8 C          63.3390   87.1322   16.5875 C.3     1  UNL1        0.0442
      9 C          63.1498   85.6777   16.2737 C.3     1  UNL1        0.0981
     10 C          63.4712   83.2088   13.1831 C.ar    1  UNL1        0.0544
     11 C          64.2355   84.0515   12.2055 C.ar    1  UNL1        0.0046
     12 C          64.4908   83.5443   10.8172 C.ar    1  UNL1        0.0010
     13 C          63.9817   82.1944   10.4064 C.ar    1  UNL1        0.0114
     14 C          63.2173   81.3518   11.3839 C.ar    1  UNL1        0.0578
     15 CL         62.7082   80.0019   10.9731 Cl      1  UNL1       -0.0822
     16 C          62.9621   81.8590   12.7723 C.ar    1  UNL1        0.0159
     17 C          64.4172   90.4816   14.7520 C.1     1  UNL1       -0.0583
     18 C          64.8617   91.4290   13.6774 C.1     1  UNL1       -0.0404
     19 C          65.3062   92.3765   12.6028 C.ar    1  UNL1        0.1238
     20 C          65.3631   91.9184   11.1756 C.ar    1  UNL1        0.0277
     21 C          65.8075   92.8659   10.1010 C.ar    1  UNL1        0.0046
     22 C          66.1952   94.2713   10.4535 C.ar    1  UNL1        0.0308
     23 C          66.1383   94.7294   11.8808 C.ar    1  UNL1        0.1390
     24 CL         66.5259   96.1349   12.2334 Cl      1  UNL1       -0.0613
     25 N          65.6938   93.7820   12.9554 N.ar    1  UNL1       -0.2257
@<TRIPOS>BOND
     1     1     2    2
     2     2    10    1
     3    10    11   ar
     4    11    12   ar
     5    12    13   ar
     6    13    14   ar
     7    14    15    1
     8    14    16   ar
     9     2     3   am
    10     3     4    1
    11     4     5    1
    12     5     6    1
    13     6     7    2
    14     7    17    1
    15    17    18    3
    16    18    19    1
    17    19    20   ar
    18    20    21   ar
    19    21    22   ar
    20    22    23   ar
    21    23    24    1
    22    23    25   ar
    23     6     8    1
    24     8     9    1
    25    16    10   ar
    26     9     3    1
    27    25    19   ar
@<TRIPOS>MOLECULE
*****
 25 27 0 0 0
SMALL
GASTEIGER

@<TRIPOS>ATOM
      1 O          66.1515   94.5877   14.1440 O.2     1  UNL1       -0.2699
      2 C          66.1360   93.2346   13.4969 C.2     1  UNL1        0.2491
      3 N          65.4706   92.0809   14.1870 N.am    1  UNL1       -0.2754
      4 C          65.4551   90.7277   13.5399 C.3     1  UNL1        0.0981
      5 C          64.7897   89.5739   14.2300 C.3     1  UNL1        0.0442
      6 C          64.1398   89.7734   15.5671 C.2     1  UNL1       -0.0326
      7 C          63.4744   88.6197   16.2571 C.2     1  UNL1        0.0412
      8 C          64.1553   91.1266   16.2141 C.3     1  UNL1        0.0442
      9 C          64.8207   92.2803   15.5241 C.3     1  UNL1        0.0981
     10 C          66.7860   93.0351   12.1598 C.ar    1  UNL1        0.0544
     11 C          67.7333   91.8913   11.9495 C.ar    1  UNL1        0.0046
     12 C          68.3832   91.6920   10.6124 C.ar    1  UNL1        0.0010
     13 C          68.0857   92.6363    9.4856 C.ar    1  UNL1        0.0114
     14 C          67.1384   93.7801    9.6959 C.ar    1  UNL1        0.0578
     15 CL         66.8409   94.7245    8.5691 Cl      1  UNL1       -0.0822
     16 C          66.4885   93.9795   11.0330 C.ar    1  UNL1        0.0159
     17 C          63.4589   87.2665   15.6101 C.1     1  UNL1       -0.0583
     18 C          63.4434   85.9133   14.9630 C.1     1  UNL1       -0.0404
     19 C          63.4280   84.5602   14.3160 C.ar    1  UNL1        0.1238
     20 C          64.4970   84.1869   13.3323 C.ar    1  UNL1        0.0277
     21 C          64.4816   82.8337   12.6852 C.ar    1  UNL1        0.0046
     22 C          63.3970   81.8538   13.0219 C.ar    1  UNL1        0.0308
     23 C          62.3278   82.2270   14.0056 C.ar    1  UNL1        0.1390
     24 CL         61.2432   81.2471   14.3423 Cl      1  UNL1       -0.0613
     25 N          62.3433   83.5802   14.6527 N.ar    1  UNL1       -0.2257
@<TRIPOS>BOND
     1     1     2    2
     2     2    10    1
     3    10    11   ar
     4    11    12   ar
     5    12    13   ar
     6    13    14   ar
     7    14    15    1
     8    14    16   ar
     9     2     3   am
    10     3     4    1
    11     4     5    1
    12     5     6    1
    13     6     7    2
    14     7    17    1
    15    17    18    3
    16    18    19    1
    17    19    20   ar
    18    20    21   ar
    19    21    22   ar
    20    22    23   ar
    21    23    24    1
    22    23    25   ar
    23     6     8    1
    24     8     9    1
    25    16    10   ar
    26     9     3    1
    27    25    19   ar
@<TRIPOS>MOLECULE
*****
 25 27 0 0 0
SMALL
GASTEIGER

@<TRIPOS>ATOM
      1 O          65.3653   94.1927   11.7653 O.2     1  UNL1       -0.2699
      2 C          65.4262   92.8831   12.4941 C.2     1  UNL1        0.2491
      3 N          64.6131   91.7182   12.0124 N.am    1  UNL1       -0.2754
      4 C          64.6740   90.4086   12.7412 C.3     1  UNL1        0.0981
      5 C          63.8608   89.2437   12.2595 C.3     1  UNL1        0.0442
      6 C          62.9868   89.3886   11.0491 C.2     1  UNL1       -0.0326
      7 C          62.1737   88.2238   10.5675 C.2     1  UNL1        0.0412
      8 C          62.9259   90.6983   10.3204 C.3     1  UNL1        0.0442
      9 C          63.7390   91.8631   10.8020 C.3     1  UNL1        0.0981
     10 C          66.3003   92.7382   13.7045 C.ar    1  UNL1        0.0544
     11 C          65.6908   92.7462   15.0750 C.ar    1  UNL1        0.0046
     12 C          66.5649   92.6013   16.2854 C.ar    1  UNL1        0.0010
     13 C          68.0485   92.4486   16.1251 C.ar    1  UNL1        0.0114
     14 C          68.6580   92.4407   14.7546 C.ar    1  UNL1        0.0578
     15 CL         70.1416   92.2879   14.5944 Cl      1  UNL1       -0.0822
     16 C          67.7839   92.5855   13.5443 C.ar    1  UNL1        0.0159
     17 C          62.2346   86.9141   11.2962 C.1     1  UNL1       -0.0583
     18 C          62.2955   85.6045   12.0250 C.1     1  UNL1       -0.0404
     19 C          62.3564   84.2948   12.7537 C.ar    1  UNL1        0.1238
     20 C          62.2771   84.2654   14.2513 C.ar    1  UNL1        0.0277
     21 C          62.3380   82.9557   14.9800 C.ar    1  UNL1        0.0046
     22 C          62.4783   81.6754   14.2112 C.ar    1  UNL1        0.0308
     23 C          62.5576   81.7048   12.7135 C.ar    1  UNL1        0.1390
     24 CL         62.6979   80.4245   11.9447 Cl      1  UNL1       -0.0613
     25 N          62.4967   83.0145   11.9848 N.ar    1  UNL1       -0.2257
@<TRIPOS>BOND
     1     1     2    2
     2     2    10    1
     3    10    11   ar
     4    11    12   ar
     5    12    13   ar
     6    13    14   ar
     7    14    15    1
     8    14    16   ar
     9     2     3   am
    10     3     4    1
    11     4     5    1
    12     5     6    1
    13     6     7    2
    14     7    17    1
    15    17    18    3
    16    18    19    1
    17    19    20   ar
    18    20    21   ar
    19    21    22   ar
    20    22    23   ar
    21    23    24    1
    22    23    25   ar
    23     6     8    1
    24     8     9    1
    25    16    10   ar
    26     9     3    1
    27    25    19   ar
@<TRIPOS>MOLECULE
*****
 25 27 0 0 0
SMALL
GASTEIGER

@<TRIPOS>ATOM
      1 O          58.4565   86.8880    7.0401 O.2     1  UNL1       -0.2699
      2 C          59.2685   88.0984    7.3943 C.2     1  UNL1        0.2491
      3 N          60.1357   88.0880    8.6182 N.am    1  UNL1       -0.2754
      4 C          60.9478   89.2984    8.9723 C.3     1  UNL1        0.0981
      5 C          61.8150   89.2879   10.1962 C.3     1  UNL1        0.0442
      6 C          61.8701   88.0670   11.0659 C.2     1  UNL1       -0.0326
      7 C          62.7373   88.0566   12.2898 C.2     1  UNL1        0.0412
      8 C          61.0580   86.8566   10.7118 C.3     1  UNL1        0.0442
      9 C          60.1908   86.8670    9.4879 C.3     1  UNL1        0.0981
     10 C          59.2134   89.3193    6.5245 C.ar    1  UNL1        0.0544
     11 C          60.4808   89.9155    5.9877 C.ar    1  UNL1        0.0046
     12 C          60.4256   91.1364    5.1180 C.ar    1  UNL1        0.0010
     13 C          59.1031   91.7610    4.7851 C.ar    1  UNL1        0.0114
     14 C          57.8357   91.1648    5.3220 C.ar    1  UNL1        0.0578
     15 CL         56.5132   91.7894    4.9891 Cl      1  UNL1       -0.0822
     16 C          57.8909   89.9439    6.1917 C.ar    1  UNL1        0.0159
     17 C          63.5493   89.2670   12.6439 C.1     1  UNL1       -0.0583
     18 C          64.3614   90.4774   12.9981 C.1     1  UNL1       -0.0404
     19 C          65.1735   91.6878   13.3523 C.ar    1  UNL1        0.1238
     20 C          65.7811   91.8099   14.7182 C.ar    1  UNL1        0.0277
     21 C          66.5932   93.0203   15.0724 C.ar    1  UNL1        0.0046
     22 C          66.7976   94.1086   14.0606 C.ar    1  UNL1        0.0308
     23 C          66.1899   93.9866   12.6946 C.ar    1  UNL1        0.1390
     24 CL         66.3943   95.0749   11.6828 Cl      1  UNL1       -0.0613
     25 N          65.3779   92.7762   12.3404 N.ar    1  UNL1       -0.2257
@<TRIPOS>BOND
     1     1     2    2
     2     2    10    1
     3    10    11   ar
     4    11    12   ar
     5    12    13   ar
     6    13    14   ar
     7    14    15    1
     8    14    16   ar
     9     2     3   am
    10     3     4    1
    11     4     5    1
    12     5     6    1
    13     6     7    2
    14     7    17    1
    15    17    18    3
    16    18    19    1
    17    19    20   ar
    18    20    21   ar
    19    21    22   ar
    20    22    23   ar
    21    23    24    1
    22    23    25   ar
    23     6     8    1
    24     8     9    1
    25    16    10   ar
    26     9     3    1
    27    25    19   ar
@<TRIPOS>MOLECULE
*****
 25 27 0 0 0
SMALL
GASTEIGER

@<TRIPOS>ATOM
      1 O          60.3511   85.7204    8.8136 O.2     1  UNL1       -0.2699
      2 C          61.4863   85.9658    9.7629 C.2     1  UNL1        0.2491
      3 N          61.8499   87.3684   10.1506 N.am    1  UNL1       -0.2754
      4 C          62.9850   87.6138   11.0999 C.3     1  UNL1        0.0981
      5 C          63.3486   89.0165   11.4877 C.3     1  UNL1        0.0442
      6 C          62.5769   90.1738   10.9262 C.2     1  UNL1       -0.0326
      7 C          62.9405   91.5764   11.3140 C.2     1  UNL1        0.0412
      8 C          61.4418   89.9284    9.9769 C.3     1  UNL1        0.0442
      9 C          61.0782   88.5258    9.5892 C.3     1  UNL1        0.0981
     10 C          62.2579   84.8085   10.3244 C.ar    1  UNL1        0.0544
     11 C          63.2946   84.1209    9.4862 C.ar    1  UNL1        0.0046
     12 C          64.0662   82.9636   10.0477 C.ar    1  UNL1        0.0010
     13 C          63.8011   82.4939   11.4474 C.ar    1  UNL1        0.0114
     14 C          62.7645   83.1815   12.2855 C.ar    1  UNL1        0.0578
     15 CL         62.4994   82.7118   13.6852 Cl      1  UNL1       -0.0822
     16 C          61.9929   84.3388   11.7240 C.ar    1  UNL1        0.0159
     17 C          64.0757   91.8218   12.2633 C.1     1  UNL1       -0.0583
     18 C          65.2109   92.0672   13.2126 C.1     1  UNL1       -0.0404
     19 C          66.3461   92.3125   14.1619 C.ar    1  UNL1        0.1238
     20 C          66.0658   92.6138   15.6043 C.ar    1  UNL1        0.0277
     21 C          67.2010   92.8591   16.5536 C.ar    1  UNL1        0.0046
     22 C          68.6165   92.8033   16.0604 C.ar    1  UNL1        0.0308
     23 C          68.8968   92.5021   14.6179 C.ar    1  UNL1        0.1390
     24 CL         70.3123   92.4462   14.1248 Cl      1  UNL1       -0.0613
     25 N          67.7616   92.2567   13.6686 N.ar    1  UNL1       -0.2257
@<TRIPOS>BOND
     1     1     2    2
     2     2    10    1
     3    10    11   ar
     4    11    12   ar
     5    12    13   ar
     6    13    14   ar
     7    14    15    1
     8    14    16   ar
     9     2     3   am
    10     3     4    1
    11     4     5    1
    12     5     6    1
    13     6     7    2
    14     7    17    1
    15    17    18    3
    16    18    19    1
    17    19    20   ar
    18    20    21   ar
    19    21    22   ar
    20    22    23   ar
    21    23    24    1
    22    23    25   ar
    23     6     8    1
    24     8     9    1
    25    16    10   ar
    26     9     3    1
    27    25    19   ar
@<TRIPOS>MOLECULE
*****
 25 27 0 0 0
SMALL
GASTEIGER

@<TRIPOS>ATOM
      1 O          58.3988   86.8772    7.0609 O.2     1  UNL1       -0.2699
      2 C          59.2216   88.0855    7.3971 C.2     1  UNL1        0.2491
      3 N          60.0988   88.0806    8.6138 N.am    1  UNL1       -0.2754
      4 C          60.9216   89.2889    8.9501 C.3     1  UNL1        0.0981
      5 C          61.7989   89.2840   10.1668 C.3     1  UNL1        0.0442
      6 C          61.8534   88.0708   11.0472 C.2     1  UNL1       -0.0326
      7 C          62.7307   88.0659   12.2639 C.2     1  UNL1        0.0412
      8 C          61.0306   86.8625   10.7110 C.3     1  UNL1        0.0442
      9 C          60.1534   86.8674    9.4943 C.3     1  UNL1        0.0981
     10 C          59.1670   89.2987    6.5166 C.ar    1  UNL1        0.0544
     11 C          57.8654   90.0132    6.3041 C.ar    1  UNL1        0.0046
     12 C          57.8109   91.2264    5.4236 C.ar    1  UNL1        0.0010
     13 C          59.0581   91.7250    4.7557 C.ar    1  UNL1        0.0114
     14 C          60.3597   91.0105    4.9683 C.ar    1  UNL1        0.0578
     15 CL         61.6068   91.5091    4.3005 Cl      1  UNL1       -0.0822
     16 C          60.4142   89.7973    5.8488 C.ar    1  UNL1        0.0159
     17 C          63.5534   89.2742   12.6002 C.1     1  UNL1       -0.0583
     18 C          64.3762   90.4825   12.9364 C.1     1  UNL1       -0.0404
     19 C          65.1989   91.6908   13.2727 C.ar    1  UNL1        0.1238
     20 C          65.3761   92.7830   12.2600 C.ar    1  UNL1        0.0277
     21 C          66.1989   93.9913   12.5963 C.ar    1  UNL1        0.0046
     22 C          66.8444   94.1074   13.9452 C.ar    1  UNL1        0.0308
     23 C          66.6673   93.0152   14.9580 C.ar    1  UNL1        0.1390
     24 CL         67.3128   93.1312   16.3070 Cl      1  UNL1       -0.0613
     25 N          65.8445   91.8069   14.6217 N.ar    1  UNL1       -0.2257
@<TRIPOS>BOND
     1     1     2    2
     2     2    10    1
     3    10    11   ar
     4    11    12   ar
     5    12    13   ar
     6    13    14   ar
     7    14    15    1
     8    14    16   ar
     9     2     3   am
    10     3     4    1
    11     4     5    1
    12     5     6    1
    13     6     7    2
    14     7    17    1
    15    17    18    3
    16    18    19    1
    17    19    20   ar
    18    20    21   ar
    19    21    22   ar
    20    22    23   ar
    21    23    24    1
    22    23    25   ar
    23     6     8    1
    24     8     9    1
    25    16    10   ar
    26     9     3    1
    27    25    19   ar
