@<TRIPOS>MOLECULE
*****
 37 40 0 0 0
SMALL
GASTEIGER

@<TRIPOS>ATOM
      1 C          65.0433   91.8028   13.3296 C.ar    1  UNL1        0.0575
      2 C          64.0462   90.6907   13.1922 C.ar    1  UNL1        0.0372
      3 C          63.2780   90.5258   11.9144 C.ar    1  UNL1        0.0782
      4 N          63.5068   91.4730   10.7741 N.ar    1  UNL1       -0.2480
      5 C          64.5039   92.5852   10.9115 C.ar    1  UNL1        0.0812
      6 C          64.7327   93.5325    9.7712 C.ar    1  UNL1        0.0214
      7 C          65.7297   94.6446    9.9087 C.ar    1  UNL1        0.0312
      8 C          66.4980   94.8096   11.1864 C.ar    1  UNL1        0.1402
      9 F          67.4951   95.9218   11.3238 F       1  UNL1       -0.2042
     10 C          66.2692   93.8623   12.3267 C.ar    1  UNL1        0.0313
     11 C          65.2721   92.7502   12.1893 C.ar    1  UNL1        0.0243
     12 C          63.8174   89.7433   14.3325 C.ar    1  UNL1        0.0826
     13 C          64.3878   88.3570   14.2818 C.ar    1  UNL1        0.0192
     14 C          64.1590   87.4097   15.4220 C.ar    1  UNL1        0.0031
     15 C          63.3598   87.8487   16.6130 C.ar    1  UNL1        0.0207
     16 C          62.7893   89.2351   16.6637 C.ar    1  UNL1        0.0988
     17 N          63.0181   90.1824   15.5234 N.ar    1  UNL1       -0.2438
     18 C          68.0462   91.8191   15.9243 C.3     1  UNL1        0.1109
     19 N          67.2779   91.6542   14.6466 N.am    1  UNL1       -0.2992
     20 C          65.8115   91.9677   14.6073 C.2     1  UNL1        0.2460
     21 O          65.1135   92.4462   15.8458 O.2     1  UNL1       -0.2701
     22 H          67.7361   91.3402   13.8337 H       1  UNL1        0.1498
     23 C          62.2809   89.4135   11.7770 C.3     1  UNL1        0.1110
     24 C          61.0441   89.4059   12.6258 C.3     1  UNL1        0.0278
     25 N          62.5205   88.3090   10.7909 N.pl3   1  UNL1       -0.3141
     26 H          63.3137   87.7327   10.8804 H       1  UNL1        0.1485
     27 C          61.5517   88.0825    9.6684 C.ar    1  UNL1        0.1429
     28 N          60.6537   89.1959    9.2166 N.ar    1  UNL1       -0.2084
     29 C          59.6849   88.9695    8.0941 C.ar    1  UNL1        0.2012
     30 N          59.6140   87.6297    7.4233 N.ar    1  UNL1       -0.2087
     31 C          60.5119   86.5163    7.8751 C.ar    1  UNL1        0.1396
     32 N          60.4410   85.1765    7.2043 N.pl3   1  UNL1       -0.3420
     33 C          61.4808   86.7427    8.9976 C.ar    1  UNL1        0.1308
     34 H          59.8052   85.0279    6.4676 H       1  UNL1        0.1437
     35 H          61.0304   84.4458    7.5008 H       1  UNL1        0.1437
     36 C          62.3788   85.6294    9.4494 C.1     1  UNL1        0.1061
     37 N          63.2767   84.5161    9.9011 N.1     1  UNL1       -0.1906
@<TRIPOS>BOND
     1    18    19    1
     2    19    20   am
     3    20    21    2
     4    20     1    1
     5     1     2   ar
     6     2    12    1
     7    12    13   ar
     8    13    14   ar
     9    14    15   ar
    10    15    16   ar
    11    16    17   ar
    12     2     3   ar
    13     3    23    1
    14    23    24    1
    15    23    25    1
    16    25    27    1
    17    27    28   ar
    18    28    29   ar
    19    29    30   ar
    20    30    31   ar
    21    31    32    1
    22    31    33   ar
    23    33    36    1
    24    36    37    3
    25     3     4   ar
    26     4     5   ar
    27     5     6   ar
    28     6     7   ar
    29     7     8   ar
    30     8     9    1
    31     8    10   ar
    32    10    11   ar
    33    11     1   ar
    34    17    12   ar
    35    33    27   ar
    36    11     5   ar
    37    19    22    1
    38    25    26    1
    39    32    34    1
    40    32    35    1
@<TRIPOS>MOLECULE
*****
 37 40 0 0 0
SMALL
GASTEIGER

@<TRIPOS>ATOM
      1 C          64.8768   91.4454   13.4547 C.ar    1  UNL1        0.0575
      2 C          63.9146   90.3000   13.3438 C.ar    1  UNL1        0.0372
      3 C          63.1846   90.0557   12.0564 C.ar    1  UNL1        0.0782
      4 N          63.4169   90.9566   10.8799 N.ar    1  UNL1       -0.2480
      5 C          64.3791   92.1020   10.9907 C.ar    1  UNL1        0.0812
      6 C          64.6114   93.0030    9.8141 C.ar    1  UNL1        0.0214
      7 C          65.5736   94.1483    9.9250 C.ar    1  UNL1        0.0312
      8 C          66.3036   94.3926   11.2124 C.ar    1  UNL1        0.1402
      9 F          67.2658   95.5380   11.3232 F       1  UNL1       -0.2042
     10 C          66.0713   93.4917   12.3889 C.ar    1  UNL1        0.0313
     11 C          65.1091   92.3464   12.2781 C.ar    1  UNL1        0.0243
     12 C          63.6823   89.3990   14.5204 C.ar    1  UNL1        0.0826
     13 C          64.4041   88.0875   14.6147 C.ar    1  UNL1        0.0192
     14 C          64.1719   87.1865   15.7912 C.ar    1  UNL1        0.0031
     15 C          63.2178   87.5970   16.8734 C.ar    1  UNL1        0.0207
     16 C          62.4960   88.9085   16.7791 C.ar    1  UNL1        0.0988
     17 N          62.7283   89.8095   15.6026 N.ar    1  UNL1       -0.2438
     18 C          67.8307   91.8088   16.0800 C.3     1  UNL1        0.1109
     19 N          67.1008   91.5644   14.7926 N.am    1  UNL1       -0.2992
     20 C          65.6068   91.6897   14.7421 C.2     1  UNL1        0.2460
     21 O          64.8429   92.0594   15.9789 O.2     1  UNL1       -0.2701
     22 H          67.6021   91.3218   13.9808 H       1  UNL1        0.1498
     23 C          62.2223   88.9103   11.9456 C.3     1  UNL1        0.1110
     24 C          60.7926   89.1655   11.5705 C.3     1  UNL1        0.0278
     25 N          62.6898   87.5098   12.2099 N.pl3   1  UNL1       -0.3141
     26 H          62.9400   87.2383   13.1225 H       1  UNL1        0.1485
     27 C          62.7761   86.5228   11.0837 C.ar    1  UNL1        0.1429
     28 N          62.4783   86.9590    9.6797 N.ar    1  UNL1       -0.2084
     29 C          62.5645   85.9721    8.5534 C.ar    1  UNL1        0.2012
     30 N          62.9486   84.5489    8.8311 N.ar    1  UNL1       -0.2087
     31 C          63.2463   84.1127   10.2350 C.ar    1  UNL1        0.1396
     32 N          63.6303   82.6895   10.5126 N.pl3   1  UNL1       -0.3420
     33 C          63.1601   85.0996   11.3613 C.ar    1  UNL1        0.1308
     34 H          63.6869   82.0417    9.7734 H       1  UNL1        0.1437
     35 H          63.8258   82.4032   11.4341 H       1  UNL1        0.1437
     36 C          63.4579   84.6634   12.7652 C.1     1  UNL1        0.1061
     37 N          63.7556   84.2272   14.1691 N.1     1  UNL1       -0.1906
@<TRIPOS>BOND
     1    18    19    1
     2    19    20   am
     3    20    21    2
     4    20     1    1
     5     1     2   ar
     6     2    12    1
     7    12    13   ar
     8    13    14   ar
     9    14    15   ar
    10    15    16   ar
    11    16    17   ar
    12     2     3   ar
    13     3    23    1
    14    23    24    1
    15    23    25    1
    16    25    27    1
    17    27    28   ar
    18    28    29   ar
    19    29    30   ar
    20    30    31   ar
    21    31    32    1
    22    31    33   ar
    23    33    36    1
    24    36    37    3
    25     3     4   ar
    26     4     5   ar
    27     5     6   ar
    28     6     7   ar
    29     7     8   ar
    30     8     9    1
    31     8    10   ar
    32    10    11   ar
    33    11     1   ar
    34    17    12   ar
    35    33    27   ar
    36    11     5   ar
    37    19    22    1
    38    25    26    1
    39    32    34    1
    40    32    35    1
@<TRIPOS>MOLECULE
*****
 37 40 0 0 0
SMALL
GASTEIGER

@<TRIPOS>ATOM
      1 C          62.7409   86.0959   11.7910 C.ar    1  UNL1        0.0575
      2 C          62.8873   87.4728   12.3677 C.ar    1  UNL1        0.0372
      3 C          63.6147   87.6693   13.6647 C.ar    1  UNL1        0.0782
      4 N          64.1958   86.4889   14.3850 N.ar    1  UNL1       -0.2480
      5 C          64.0494   85.1118   13.8084 C.ar    1  UNL1        0.0812
      6 C          64.6305   83.9314   14.5287 C.ar    1  UNL1        0.0214
      7 C          64.4841   82.5545   13.9520 C.ar    1  UNL1        0.0312
      8 C          63.7567   82.3580   12.6550 C.ar    1  UNL1        0.1402
      9 F          63.6104   80.9810   12.0783 F       1  UNL1       -0.2042
     10 C          63.1757   83.5384   11.9347 C.ar    1  UNL1        0.0313
     11 C          63.3220   84.9153   12.5113 C.ar    1  UNL1        0.0243
     12 C          62.3062   88.6533   11.6474 C.ar    1  UNL1        0.0826
     13 C          62.9537   89.1592   10.3924 C.ar    1  UNL1        0.0192
     14 C          62.3727   90.3396    9.6721 C.ar    1  UNL1        0.0031
     15 C          61.1442   91.0142   10.2067 C.ar    1  UNL1        0.0207
     16 C          60.4968   90.5083   11.4616 C.ar    1  UNL1        0.0988
     17 N          61.0778   89.3279   12.1820 N.ar    1  UNL1       -0.2438
     18 C          62.0438   85.3050    7.9649 C.3     1  UNL1        0.1109
     19 N          62.7712   85.5015    9.2620 N.am    1  UNL1       -0.2992
     20 C          62.0135   85.8994   10.4940 C.2     1  UNL1        0.2460
     21 O          60.5286   86.1006   10.4289 O.2     1  UNL1       -0.2701
     22 H          63.7458   85.3694    9.3047 H       1  UNL1        0.1498
     23 C          63.7611   89.0463   14.2414 C.3     1  UNL1        0.1110
     24 C          63.5522   89.2705   15.7098 C.3     1  UNL1        0.0278
     25 N          64.1162   90.1990   13.3497 N.pl3   1  UNL1       -0.3141
     26 H          63.7620   90.2388   12.4320 H       1  UNL1        0.1485
     27 C          65.0112   91.2910   13.8562 C.ar    1  UNL1        0.1429
     28 N          65.4712   91.2819   15.2840 N.ar    1  UNL1       -0.2084
     29 C          66.3661   92.3739   15.7905 C.ar    1  UNL1        0.2012
     30 N          66.8011   93.4749   14.8694 N.ar    1  UNL1       -0.2087
     31 C          66.3412   93.4840   13.4417 C.ar    1  UNL1        0.1396
     32 N          66.7761   94.5850   12.5206 N.pl3   1  UNL1       -0.3420
     33 C          65.4462   92.3920   12.9351 C.ar    1  UNL1        0.1308
     34 H          67.3635   95.3017   12.8530 H       1  UNL1        0.1437
     35 H          66.4742   94.5910   11.5835 H       1  UNL1        0.1437
     36 C          64.9862   92.4011   11.5074 C.1     1  UNL1        0.1061
     37 N          64.5262   92.4101   10.0798 N.1     1  UNL1       -0.1906
@<TRIPOS>BOND
     1    18    19    1
     2    19    20   am
     3    20    21    2
     4    20     1    1
     5     1     2   ar
     6     2    12    1
     7    12    13   ar
     8    13    14   ar
     9    14    15   ar
    10    15    16   ar
    11    16    17   ar
    12     2     3   ar
    13     3    23    1
    14    23    24    1
    15    23    25    1
    16    25    27    1
    17    27    28   ar
    18    28    29   ar
    19    29    30   ar
    20    30    31   ar
    21    31    32    1
    22    31    33   ar
    23    33    36    1
    24    36    37    3
    25     3     4   ar
    26     4     5   ar
    27     5     6   ar
    28     6     7   ar
    29     7     8   ar
    30     8     9    1
    31     8    10   ar
    32    10    11   ar
    33    11     1   ar
    34    17    12   ar
    35    33    27   ar
    36    11     5   ar
    37    19    22    1
    38    25    26    1
    39    32    34    1
    40    32    35    1
@<TRIPOS>MOLECULE
*****
 37 40 0 0 0
SMALL
GASTEIGER

@<TRIPOS>ATOM
      1 C          62.4784   85.6999   10.7980 C.ar    1  UNL1        0.0575
      2 C          62.7294   86.8883   11.6781 C.ar    1  UNL1        0.0372
      3 C          63.5024   86.7272   12.9535 C.ar    1  UNL1        0.0782
      4 N          64.0244   85.3777   13.3487 N.ar    1  UNL1       -0.2480
      5 C          63.7734   84.1891   12.4686 C.ar    1  UNL1        0.0812
      6 C          64.2954   82.8396   12.8639 C.ar    1  UNL1        0.0214
      7 C          64.0443   81.6512   11.9838 C.ar    1  UNL1        0.0312
      8 C          63.2714   81.8123   10.7084 C.ar    1  UNL1        0.1402
      9 F          63.0204   80.6238    9.8283 F       1  UNL1       -0.2042
     10 C          62.7494   83.1619   10.3132 C.ar    1  UNL1        0.0313
     11 C          63.0004   84.3503   11.1933 C.ar    1  UNL1        0.0243
     12 C          62.2074   88.2379   11.2829 C.ar    1  UNL1        0.0826
     13 C          62.9958   89.1012   10.3431 C.ar    1  UNL1        0.0192
     14 C          62.4738   90.4507    9.9479 C.ar    1  UNL1        0.0031
     15 C          61.1635   90.9370   10.4924 C.ar    1  UNL1        0.0207
     16 C          60.3752   90.0737   11.4322 C.ar    1  UNL1        0.0988
     17 N          60.8971   88.7242   11.8275 N.ar    1  UNL1       -0.2438
     18 C          59.5365   86.5703    8.2805 C.3     1  UNL1        0.1109
     19 N          60.3095   86.4092    9.5559 N.am    1  UNL1       -0.2992
     20 C          61.7054   85.8610    9.5227 C.2     1  UNL1        0.2460
     21 O          62.3282   85.4739    8.2142 O.2     1  UNL1       -0.2701
     22 H          59.9007   86.6633   10.4147 H       1  UNL1        0.1498
     23 C          63.7534   87.9157   13.8336 C.3     1  UNL1        0.1110
     24 C          64.4736   87.7441   15.1381 C.3     1  UNL1        0.0278
     25 N          63.2841   89.2757   13.4092 N.pl3   1  UNL1       -0.3141
     26 H          62.4018   89.3820   12.9856 H       1  UNL1        0.1485
     27 C          64.1592   90.4737   13.6302 C.ar    1  UNL1        0.1429
     28 N          64.8655   91.1108   12.4703 N.ar    1  UNL1       -0.2084
     29 C          65.7405   92.3089   12.6913 C.ar    1  UNL1        0.2012
     30 N          65.9094   92.8699   14.0721 N.ar    1  UNL1       -0.2087
     31 C          65.2032   92.2328   15.2320 C.ar    1  UNL1        0.1396
     32 N          65.3721   92.7938   16.6129 N.pl3   1  UNL1       -0.3420
     33 C          64.3281   91.0347   15.0111 C.ar    1  UNL1        0.1308
     34 H          65.9464   93.5801   16.7579 H       1  UNL1        0.1437
     35 H          64.9085   92.3756   17.3742 H       1  UNL1        0.1437
     36 C          63.6218   90.3976   16.1709 C.1     1  UNL1        0.1061
     37 N          62.9156   89.7606   17.3308 N.1     1  UNL1       -0.1906
@<TRIPOS>BOND
     1    18    19    1
     2    19    20   am
     3    20    21    2
     4    20     1    1
     5     1     2   ar
     6     2    12    1
     7    12    13   ar
     8    13    14   ar
     9    14    15   ar
    10    15    16   ar
    11    16    17   ar
    12     2     3   ar
    13     3    23    1
    14    23    24    1
    15    23    25    1
    16    25    27    1
    17    27    28   ar
    18    28    29   ar
    19    29    30   ar
    20    30    31   ar
    21    31    32    1
    22    31    33   ar
    23    33    36    1
    24    36    37    3
    25     3     4   ar
    26     4     5   ar
    27     5     6   ar
    28     6     7   ar
    29     7     8   ar
    30     8     9    1
    31     8    10   ar
    32    10    11   ar
    33    11     1   ar
    34    17    12   ar
    35    33    27   ar
    36    11     5   ar
    37    19    22    1
    38    25    26    1
    39    32    34    1
    40    32    35    1
@<TRIPOS>MOLECULE
*****
 37 40 0 0 0
SMALL
GASTEIGER

@<TRIPOS>ATOM
      1 C          61.5508   94.0442   -1.4671 C.ar    1  UNL1        0.0575
      2 C          60.3396   94.6495   -2.1123 C.ar    1  UNL1        0.0372
      3 C          59.0723   94.8103   -1.3261 C.ar    1  UNL1        0.0782
      4 N          59.0163   94.3659    0.1054 N.ar    1  UNL1       -0.2480
      5 C          60.2276   93.7606    0.7508 C.ar    1  UNL1        0.0812
      6 C          60.1717   93.3161    2.1823 C.ar    1  UNL1        0.0214
      7 C          61.3829   92.7109    2.8276 C.ar    1  UNL1        0.0312
      8 C          62.6502   92.5500    2.0413 C.ar    1  UNL1        0.1402
      9 F          63.8615   91.9447    2.6867 F       1  UNL1       -0.2042
     10 C          62.7062   92.9945    0.6098 C.ar    1  UNL1        0.0313
     11 C          61.4949   93.5997   -0.0355 C.ar    1  UNL1        0.0243
     12 C          60.3955   95.0940   -3.5439 C.ar    1  UNL1        0.0826
     13 C          59.8268   94.2210   -4.6230 C.ar    1  UNL1        0.0192
     14 C          59.8827   94.6654   -6.0546 C.ar    1  UNL1        0.0031
     15 C          60.5073   95.9828   -6.4070 C.ar    1  UNL1        0.0207
     16 C          61.0760   96.8558   -5.3279 C.ar    1  UNL1        0.0988
     17 N          61.0201   96.4114   -3.8963 N.ar    1  UNL1       -0.2438
     18 C          64.2374   92.5721   -3.9901 C.3     1  UNL1        0.1109
     19 N          62.9701   92.7330   -3.2039 N.am    1  UNL1       -0.2992
     20 C          62.8181   93.8834   -2.2533 C.2     1  UNL1        0.2460
     21 O          63.9333   94.8729   -2.0890 O.2     1  UNL1       -0.2701
     22 H          62.2381   92.0835   -3.3117 H       1  UNL1        0.1498
     23 C          57.8610   95.4156   -1.9714 C.3     1  UNL1        0.1110
     24 C          57.8758   96.8553   -2.3921 C.3     1  UNL1        0.0278
     25 N          56.6349   94.5812   -2.1960 N.pl3   1  UNL1       -0.3141
     26 H          55.8437   94.7047   -1.6233 H       1  UNL1        0.1485
     27 C          56.6143   93.5586   -3.2932 C.ar    1  UNL1        0.1429
     28 N          57.2466   92.2154   -3.0786 N.ar    1  UNL1       -0.2084
     29 C          57.2260   91.1928   -4.1758 C.ar    1  UNL1        0.2012
     30 N          56.5732   91.5134   -5.4877 N.ar    1  UNL1       -0.2087
     31 C          55.9410   92.8566   -5.7023 C.ar    1  UNL1        0.1396
     32 N          55.2881   93.1772   -7.0142 N.pl3   1  UNL1       -0.3420
     33 C          55.9615   93.8792   -4.6051 C.ar    1  UNL1        0.1308
     34 H          55.2746   92.5060   -7.7344 H       1  UNL1        0.1437
     35 H          54.8732   94.0588   -7.1551 H       1  UNL1        0.1437
     36 C          55.3293   95.2224   -4.8198 C.1     1  UNL1        0.1061
     37 N          54.6970   96.5656   -5.0345 N.1     1  UNL1       -0.1906
@<TRIPOS>BOND
     1    18    19    1
     2    19    20   am
     3    20    21    2
     4    20     1    1
     5     1     2   ar
     6     2    12    1
     7    12    13   ar
     8    13    14   ar
     9    14    15   ar
    10    15    16   ar
    11    16    17   ar
    12     2     3   ar
    13     3    23    1
    14    23    24    1
    15    23    25    1
    16    25    27    1
    17    27    28   ar
    18    28    29   ar
    19    29    30   ar
    20    30    31   ar
    21    31    32    1
    22    31    33   ar
    23    33    36    1
    24    36    37    3
    25     3     4   ar
    26     4     5   ar
    27     5     6   ar
    28     6     7   ar
    29     7     8   ar
    30     8     9    1
    31     8    10   ar
    32    10    11   ar
    33    11     1   ar
    34    17    12   ar
    35    33    27   ar
    36    11     5   ar
    37    19    22    1
    38    25    26    1
    39    32    34    1
    40    32    35    1
@<TRIPOS>MOLECULE
*****
 37 40 0 0 0
SMALL
GASTEIGER

@<TRIPOS>ATOM
      1 C          62.8358   89.2310   11.6358 C.ar    1  UNL1        0.0575
      2 C          63.5107   88.8157   12.9093 C.ar    1  UNL1        0.0372
      3 C          63.5058   87.3745   13.3252 C.ar    1  UNL1        0.0782
      4 N          62.8260   86.3487   12.4676 N.ar    1  UNL1       -0.2480
      5 C          62.1510   86.7640   11.1940 C.ar    1  UNL1        0.0812
      6 C          61.4712   85.7383   10.3364 C.ar    1  UNL1        0.0214
      7 C          60.7962   86.1536    9.0629 C.ar    1  UNL1        0.0312
      8 C          60.8011   87.5948    8.6471 C.ar    1  UNL1        0.1402
      9 F          60.1261   88.0102    7.3735 F       1  UNL1       -0.2042
     10 C          61.4809   88.6206    9.5047 C.ar    1  UNL1        0.0313
     11 C          62.1559   88.2052   10.7782 C.ar    1  UNL1        0.0243
     12 C          64.1906   89.8415   13.7670 C.ar    1  UNL1        0.0826
     13 C          63.4992   90.3777   14.9854 C.ar    1  UNL1        0.0192
     14 C          64.1790   91.4035   15.8430 C.ar    1  UNL1        0.0031
     15 C          65.5502   91.8930   15.4824 C.ar    1  UNL1        0.0207
     16 C          66.2416   91.3567   14.2640 C.ar    1  UNL1        0.0988
     17 N          65.5618   90.3310   13.4064 N.ar    1  UNL1       -0.2438
     18 C          64.1407   92.7945   10.4743 C.3     1  UNL1        0.1109
     19 N          64.1358   91.3533   10.8902 N.am    1  UNL1       -0.2992
     20 C          62.8406   90.6722   11.2200 C.2     1  UNL1        0.2460
     21 O          61.5504   91.4324   11.1339 O.2     1  UNL1       -0.2701
     22 H          64.9827   90.8544   10.9467 H       1  UNL1        0.1498
     23 C          64.1808   86.9591   14.5988 C.3     1  UNL1        0.1110
     24 C          63.9707   87.7546   15.8530 C.3     1  UNL1        0.0278
     25 N          65.0659   85.7483   14.6182 N.pl3   1  UNL1       -0.3141
     26 H          65.9824   85.8140   14.9719 H       1  UNL1        0.1485
     27 C          64.5548   84.4373   14.0986 C.ar    1  UNL1        0.1429
     28 N          65.2370   83.7724   12.9399 N.ar    1  UNL1       -0.2084
     29 C          64.7259   82.4614   12.4203 C.ar    1  UNL1        0.2012
     30 N          63.5325   81.8152   13.0594 N.ar    1  UNL1       -0.2087
     31 C          62.8503   82.4801   14.2180 C.ar    1  UNL1        0.1396
     32 N          61.6570   81.8340   14.8571 N.pl3   1  UNL1       -0.3420
     33 C          63.3615   83.7912   14.7376 C.ar    1  UNL1        0.1308
     34 H          61.3215   80.9735   14.5160 H       1  UNL1        0.1437
     35 H          61.2092   82.2703   15.6175 H       1  UNL1        0.1437
     36 C          62.6792   84.4560   15.8963 C.1     1  UNL1        0.1061
     37 N          61.9970   85.1209   17.0549 N.1     1  UNL1       -0.1906
@<TRIPOS>BOND
     1    18    19    1
     2    19    20   am
     3    20    21    2
     4    20     1    1
     5     1     2   ar
     6     2    12    1
     7    12    13   ar
     8    13    14   ar
     9    14    15   ar
    10    15    16   ar
    11    16    17   ar
    12     2     3   ar
    13     3    23    1
    14    23    24    1
    15    23    25    1
    16    25    27    1
    17    27    28   ar
    18    28    29   ar
    19    29    30   ar
    20    30    31   ar
    21    31    32    1
    22    31    33   ar
    23    33    36    1
    24    36    37    3
    25     3     4   ar
    26     4     5   ar
    27     5     6   ar
    28     6     7   ar
    29     7     8   ar
    30     8     9    1
    31     8    10   ar
    32    10    11   ar
    33    11     1   ar
    34    17    12   ar
    35    33    27   ar
    36    11     5   ar
    37    19    22    1
    38    25    26    1
    39    32    34    1
    40    32    35    1
@<TRIPOS>MOLECULE
*****
 37 40 0 0 0
SMALL
GASTEIGER

@<TRIPOS>ATOM
      1 C          63.0291   84.8419   11.9342 C.ar    1  UNL1        0.0575
      2 C          62.6303   86.0466   11.1345 C.ar    1  UNL1        0.0372
      3 C          62.8074   87.4207   11.7094 C.ar    1  UNL1        0.0782
      4 N          63.3832   87.5901   13.0841 N.ar    1  UNL1       -0.2480
      5 C          63.7820   86.3853   13.8839 C.ar    1  UNL1        0.0812
      6 C          64.3579   86.5547   15.2585 C.ar    1  UNL1        0.0214
      7 C          64.7567   85.3500   16.0582 C.ar    1  UNL1        0.0312
      8 C          64.5796   83.9759   15.4833 C.ar    1  UNL1        0.1402
      9 F          64.9784   82.7711   16.2831 F       1  UNL1       -0.2042
     10 C          64.0038   83.8065   14.1086 C.ar    1  UNL1        0.0313
     11 C          63.6050   85.0112   13.3089 C.ar    1  UNL1        0.0243
     12 C          62.0545   85.8773    9.7598 C.ar    1  UNL1        0.0826
     13 C          62.9236   85.3938    8.6369 C.ar    1  UNL1        0.0192
     14 C          62.3478   85.2245    7.2622 C.ar    1  UNL1        0.0031
     15 C          60.9029   85.5386    7.0104 C.ar    1  UNL1        0.0207
     16 C          60.0338   86.0221    8.1333 C.ar    1  UNL1        0.0988
     17 N          60.6095   86.1914    9.5080 N.ar    1  UNL1       -0.2438
     18 C          63.7566   81.4895    9.9387 C.3     1  UNL1        0.1109
     19 N          63.9337   82.8636   10.5136 N.am    1  UNL1       -0.2992
     20 C          62.8521   83.4678   11.3593 C.2     1  UNL1        0.2460
     21 O          61.5935   82.6980   11.6300 O.2     1  UNL1       -0.2701
     22 H          64.7597   83.3688   10.3359 H       1  UNL1        0.1498
     23 C          62.4086   88.6254   10.9096 C.3     1  UNL1        0.1110
     24 C          62.1946   88.5060    9.4298 C.3     1  UNL1        0.0278
     25 N          62.2238   89.9496   11.5897 N.pl3   1  UNL1       -0.3141
     26 H          61.3406   90.2018   11.9442 H       1  UNL1        0.1485
     27 C          63.3845   90.8893   11.7296 C.ar    1  UNL1        0.1429
     28 N          63.9531   91.5646   10.5168 N.ar    1  UNL1       -0.2084
     29 C          65.1138   92.5043   10.6567 C.ar    1  UNL1        0.2012
     30 N          65.7060   92.7688   12.0093 N.ar    1  UNL1       -0.2087
     31 C          65.1374   92.0935   13.2219 C.ar    1  UNL1        0.1396
     32 N          65.7296   92.3579   14.5745 N.pl3   1  UNL1       -0.3420
     33 C          63.9766   91.1537   13.0821 C.ar    1  UNL1        0.1308
     34 H          66.4914   92.9747   14.6663 H       1  UNL1        0.1437
     35 H          65.3564   91.9147   15.3705 H       1  UNL1        0.1437
     36 C          63.4081   90.4784   14.2948 C.1     1  UNL1        0.1061
     37 N          62.8395   89.8032   15.5075 N.1     1  UNL1       -0.1906
@<TRIPOS>BOND
     1    18    19    1
     2    19    20   am
     3    20    21    2
     4    20     1    1
     5     1     2   ar
     6     2    12    1
     7    12    13   ar
     8    13    14   ar
     9    14    15   ar
    10    15    16   ar
    11    16    17   ar
    12     2     3   ar
    13     3    23    1
    14    23    24    1
    15    23    25    1
    16    25    27    1
    17    27    28   ar
    18    28    29   ar
    19    29    30   ar
    20    30    31   ar
    21    31    32    1
    22    31    33   ar
    23    33    36    1
    24    36    37    3
    25     3     4   ar
    26     4     5   ar
    27     5     6   ar
    28     6     7   ar
    29     7     8   ar
    30     8     9    1
    31     8    10   ar
    32    10    11   ar
    33    11     1   ar
    34    17    12   ar
    35    33    27   ar
    36    11     5   ar
    37    19    22    1
    38    25    26    1
    39    32    34    1
    40    32    35    1
@<TRIPOS>MOLECULE
*****
 37 40 0 0 0
SMALL
GASTEIGER

@<TRIPOS>ATOM
      1 C          61.8465   85.9080    9.3921 C.ar    1  UNL1        0.0575
      2 C          61.3246   87.2600    9.7791 C.ar    1  UNL1        0.0372
      3 C          61.5751   87.7940   11.1582 C.ar    1  UNL1        0.0782
      4 N          62.3474   86.9762   12.1504 N.ar    1  UNL1       -0.2480
      5 C          62.8694   85.6241   11.7635 C.ar    1  UNL1        0.0812
      6 C          63.6418   84.8063   12.7556 C.ar    1  UNL1        0.0214
      7 C          64.1637   83.4543   12.3687 C.ar    1  UNL1        0.0312
      8 C          63.9132   82.9202   10.9895 C.ar    1  UNL1        0.1402
      9 F          64.4352   81.5682   10.6026 F       1  UNL1       -0.2042
     10 C          63.1408   83.7381    9.9974 C.ar    1  UNL1        0.0313
     11 C          62.6189   85.0901   10.3843 C.ar    1  UNL1        0.0243
     12 C          60.5521   88.0779    8.7869 C.ar    1  UNL1        0.0826
     13 C          59.3337   87.5029    8.1276 C.ar    1  UNL1        0.0192
     14 C          58.5612   88.3208    7.1355 C.ar    1  UNL1        0.0031
     15 C          59.0073   89.7137    6.8026 C.ar    1  UNL1        0.0207
     16 C          60.2257   90.2887    7.4619 C.ar    1  UNL1        0.0988
     17 N          60.9982   89.4708    8.4541 N.ar    1  UNL1       -0.2438
     18 C          62.5007   84.4616    5.7548 C.3     1  UNL1        0.1109
     19 N          62.7511   84.9957    7.1340 N.am    1  UNL1       -0.2992
     20 C          61.5960   85.3739    8.0130 C.2     1  UNL1        0.2460
     21 O          60.1905   85.2181    7.5129 O.2     1  UNL1       -0.2701
     22 H          63.6737   85.0979    7.4622 H       1  UNL1        0.1498
     23 C          61.0531   89.1461   11.5452 C.3     1  UNL1        0.1110
     24 C          59.5889   89.3374   11.8090 C.3     1  UNL1        0.0278
     25 N          61.9953   90.3067   11.6683 N.pl3   1  UNL1       -0.3141
     26 H          62.0391   90.9830   10.9543 H       1  UNL1        0.1485
     27 C          62.8707   90.4368   12.8793 C.ar    1  UNL1        0.1429
     28 N          62.4718   89.7794   14.1673 N.ar    1  UNL1       -0.2084
     29 C          63.3472   89.9095   15.3784 C.ar    1  UNL1        0.2012
     30 N          64.6216   90.6969   15.3015 N.ar    1  UNL1       -0.2087
     31 C          65.0206   91.3542   14.0136 C.ar    1  UNL1        0.1396
     32 N          66.2950   92.1416   13.9368 N.pl3   1  UNL1       -0.3420
     33 C          64.1451   91.2242   12.8025 C.ar    1  UNL1        0.1308
     34 H          66.8695   92.2270   14.7316 H       1  UNL1        0.1437
     35 H          66.5568   92.5731   13.0915 H       1  UNL1        0.1437
     36 C          64.5441   91.8815   11.5146 C.1     1  UNL1        0.1061
     37 N          64.9431   92.5388   10.2267 N.1     1  UNL1       -0.1906
@<TRIPOS>BOND
     1    18    19    1
     2    19    20   am
     3    20    21    2
     4    20     1    1
     5     1     2   ar
     6     2    12    1
     7    12    13   ar
     8    13    14   ar
     9    14    15   ar
    10    15    16   ar
    11    16    17   ar
    12     2     3   ar
    13     3    23    1
    14    23    24    1
    15    23    25    1
    16    25    27    1
    17    27    28   ar
    18    28    29   ar
    19    29    30   ar
    20    30    31   ar
    21    31    32    1
    22    31    33   ar
    23    33    36    1
    24    36    37    3
    25     3     4   ar
    26     4     5   ar
    27     5     6   ar
    28     6     7   ar
    29     7     8   ar
    30     8     9    1
    31     8    10   ar
    32    10    11   ar
    33    11     1   ar
    34    17    12   ar
    35    33    27   ar
    36    11     5   ar
    37    19    22    1
    38    25    26    1
    39    32    34    1
    40    32    35    1
@<TRIPOS>MOLECULE
*****
 37 40 0 0 0
SMALL
GASTEIGER

@<TRIPOS>ATOM
      1 C          62.0549   85.7889    9.6271 C.ar    1  UNL1        0.0575
      2 C          61.2220   86.9823    9.9904 C.ar    1  UNL1        0.0372
      3 C          61.1016   87.4043   11.4248 C.ar    1  UNL1        0.0782
      4 N          61.8140   86.6328   12.4959 N.ar    1  UNL1       -0.2480
      5 C          62.6469   85.4393   12.1326 C.ar    1  UNL1        0.0812
      6 C          63.3592   84.6678   13.2037 C.ar    1  UNL1        0.0214
      7 C          64.1921   83.4743   12.8404 C.ar    1  UNL1        0.0312
      8 C          64.3125   83.0524   11.4060 C.ar    1  UNL1        0.1402
      9 F          65.1454   81.8588   11.0428 F       1  UNL1       -0.2042
     10 C          63.6001   83.8238   10.3349 C.ar    1  UNL1        0.0313
     11 C          62.7673   85.0173   10.6982 C.ar    1  UNL1        0.0243
     12 C          60.5096   87.7539    8.9193 C.ar    1  UNL1        0.0826
     13 C          60.9423   89.1513    8.5878 C.ar    1  UNL1        0.0192
     14 C          60.2300   89.9229    7.5168 C.ar    1  UNL1        0.0031
     15 C          59.0849   89.2970    6.7773 C.ar    1  UNL1        0.0207
     16 C          58.6521   87.8996    7.1088 C.ar    1  UNL1        0.0988
     17 N          59.3645   87.1280    8.1798 N.ar    1  UNL1       -0.2438
     18 C          61.0992   84.4050    6.0324 C.3     1  UNL1        0.1109
     19 N          60.9788   84.8270    7.4668 N.am    1  UNL1       -0.2992
     20 C          62.1753   85.3669    8.1928 C.2     1  UNL1        0.2460
     21 O          63.4922   85.4848    7.4843 O.2     1  UNL1       -0.2701
     22 H          60.1145   84.7496    7.9318 H       1  UNL1        0.1498
     23 C          60.2687   88.5978   11.7881 C.3     1  UNL1        0.1110
     24 C          58.8466   88.6904   11.3201 C.3     1  UNL1        0.0278
     25 N          60.8580   89.6986   12.6193 N.pl3   1  UNL1       -0.3141
     26 H          60.4203   89.9701   13.4583 H       1  UNL1        0.1485
     27 C          62.1141   90.3858   12.1722 C.ar    1  UNL1        0.1429
     28 N          62.2358   90.8830   10.7622 N.ar    1  UNL1       -0.2084
     29 C          63.4918   91.5702   10.3150 C.ar    1  UNL1        0.2012
     30 N          64.6263   91.7602   11.2778 N.ar    1  UNL1       -0.2087
     31 C          64.5047   91.2629   12.6877 C.ar    1  UNL1        0.1396
     32 N          65.6391   91.4529   13.6505 N.pl3   1  UNL1       -0.3420
     33 C          63.2485   90.5757   13.1349 C.ar    1  UNL1        0.1308
     34 H          66.4635   91.9039   13.3570 H       1  UNL1        0.1437
     35 H          65.5593   91.1265   14.5759 H       1  UNL1        0.1437
     36 C          63.1269   90.0785   14.5449 C.1     1  UNL1        0.1061
     37 N          63.0052   89.5813   15.9548 N.1     1  UNL1       -0.1906
@<TRIPOS>BOND
     1    18    19    1
     2    19    20   am
     3    20    21    2
     4    20     1    1
     5     1     2   ar
     6     2    12    1
     7    12    13   ar
     8    13    14   ar
     9    14    15   ar
    10    15    16   ar
    11    16    17   ar
    12     2     3   ar
    13     3    23    1
    14    23    24    1
    15    23    25    1
    16    25    27    1
    17    27    28   ar
    18    28    29   ar
    19    29    30   ar
    20    30    31   ar
    21    31    32    1
    22    31    33   ar
    23    33    36    1
    24    36    37    3
    25     3     4   ar
    26     4     5   ar
    27     5     6   ar
    28     6     7   ar
    29     7     8   ar
    30     8     9    1
    31     8    10   ar
    32    10    11   ar
    33    11     1   ar
    34    17    12   ar
    35    33    27   ar
    36    11     5   ar
    37    19    22    1
    38    25    26    1
    39    32    34    1
    40    32    35    1
