@<TRIPOS>MOLECULE
*****
 39 42 0 0 0
SMALL
GASTEIGER

@<TRIPOS>ATOM
      1 C          62.8214   89.6895   12.8320 C.3     1  UNL1        0.1484
      2 O          61.5958   89.9185   13.6661 O.3     1  UNL1       -0.3810
      3 H          60.8380   89.4725   13.2566 H       1  UNL1        0.2105
      4 C          62.7329   88.8713   11.5779 C.3     1  UNL1        0.1245
      5 N          61.4702   88.8739   10.7681 N.am    1  UNL1       -0.2735
      6 C          61.0554   87.6409   10.0214 C.2     1  UNL1        0.2491
      7 O          59.7928   87.6436    9.2117 O.2     1  UNL1       -0.2699
      8 C          61.9034   86.4051   10.0845 C.ar    1  UNL1        0.0542
      9 C          62.5671   85.8868    8.8433 C.ar    1  UNL1        0.0061
     10 C          63.4151   84.6510    8.9064 C.ar    1  UNL1        0.0198
     11 C          63.5992   83.9337   10.2108 C.ar    1  UNL1        0.0879
     12 N          64.3711   82.7010   10.5781 N.ar    1  UNL1       -0.2363
     13 C          64.1843   82.4576   12.0463 C.ar    1  UNL1        0.1345
     14 S          63.2971   83.5398   12.5865 S.2     1  UNL1       -0.0645
     15 C          62.9355   84.4520   11.4520 C.ar    1  UNL1        0.0487
     16 C          62.0875   85.6878   11.3889 C.ar    1  UNL1        0.0125
     17 C          60.6223   90.1097   10.7051 C.3     1  UNL1        0.0937
     18 C          58.8969   89.0191   12.3125 C.3     1  UNL1        0.0018
     19 C          59.3810   90.2110   11.5411 C.3     1  UNL1        0.0199
     20 C          58.6238   91.5042   11.6057 C.3     1  UNL1        0.0018
     21 C          64.1354   90.2786   13.2520 C.3     1  UNL1        0.1075
     22 N          64.7493   91.3891   12.4521 N.am    1  UNL1       -0.2695
     23 C          65.4229   92.5329   13.1508 C.2     1  UNL1        0.4020
     24 O          65.4825   92.5661   14.6492 O.2     1  UNL1       -0.2264
     25 H          64.7101   91.3674   11.4687 H       1  UNL1        0.1528
     26 O          66.0367   93.6435   12.3509 O.3     1  UNL1       -0.4291
     27 C          66.3918   93.4228   10.9104 C.3     1  UNL1        0.2447
     28 C          66.7774   94.5866   10.0462 C.ar    1  UNL1        0.0714
     29 C          67.4445   94.5060    8.7051 C.ar    1  UNL1        0.1053
     30 N          67.6431   95.9049    8.2014 N.ar    1  UNL1       -0.2350
     31 C          67.0987   96.8500    9.2311 C.ar    1  UNL1        0.1343
     32 S          66.5637   96.0352   10.3712 S.2     1  UNL1       -0.0652
     33 C          64.8354   89.7571   14.4718 C.3     1  UNL1        0.0485
     34 C          64.2555   88.6019   15.2329 C.ar    1  UNL1       -0.0204
     35 C          63.3952   88.8525   16.4358 C.ar    1  UNL1       -0.0042
     36 C          62.8153   87.6974   17.1971 C.ar    1  UNL1       -0.0003
     37 C          63.0957   86.2916   16.7554 C.ar    1  UNL1       -0.0000
     38 C          63.9560   86.0410   15.5524 C.ar    1  UNL1       -0.0003
     39 C          64.5359   87.1961   14.7912 C.ar    1  UNL1       -0.0042
@<TRIPOS>BOND
     1    18    19    1
     2    19    20    1
     3    19    17    1
     4    17     5    1
     5     5     4    1
     6     4     1    1
     7     1     2    1
     8     1    21    1
     9    21    33    1
    10    33    34    1
    11    34    35   ar
    12    35    36   ar
    13    36    37   ar
    14    37    38   ar
    15    38    39   ar
    16    21    22    1
    17    22    23   am
    18    23    24    2
    19    23    26    1
    20    26    27    1
    21    27    28    1
    22    28    29   ar
    23    29    30   ar
    24    30    31   ar
    25    31    32   ar
    26     5     6   am
    27     6     7    2
    28     6     8    1
    29     8     9   ar
    30     9    10   ar
    31    10    11   ar
    32    11    12   ar
    33    12    13   ar
    34    13    14   ar
    35    14    15   ar
    36    15    16   ar
    37    39    34   ar
    38    32    28   ar
    39    16     8   ar
    40    15    11   ar
    41     2     3    1
    42    22    25    1
@<TRIPOS>MOLECULE
*****
 39 42 0 0 0
SMALL
GASTEIGER

@<TRIPOS>ATOM
      1 C          63.1420   90.1870   11.3972 C.3     1  UNL1        0.1484
      2 O          62.9958   91.3015   10.4039 O.3     1  UNL1       -0.3810
      3 H          62.4586   90.9989    9.6551 H       1  UNL1        0.2105
      4 C          62.4966   88.8587   11.1342 C.3     1  UNL1        0.1245
      5 N          61.1936   88.7912   10.3942 N.am    1  UNL1       -0.2735
      6 C          60.8016   87.5324    9.6787 C.2     1  UNL1        0.2491
      7 O          59.4987   87.4650    8.9388 O.2     1  UNL1       -0.2699
      8 C          61.7128   86.3411    9.7033 C.ar    1  UNL1        0.0542
      9 C          62.5455   86.0088    8.5008 C.ar    1  UNL1        0.0061
     10 C          63.4567   84.8174    8.5254 C.ar    1  UNL1        0.0198
     11 C          63.5350   83.9584    9.7526 C.ar    1  UNL1        0.0879
     12 N          64.3357   82.7299   10.0683 N.ar    1  UNL1       -0.2363
     13 C          63.9977   82.3029   11.4659 C.ar    1  UNL1        0.1345
     14 S          62.9882   83.2676   12.0140 S.2     1  UNL1       -0.0645
     15 C          62.7022   84.2907   10.9551 C.ar    1  UNL1        0.0487
     16 C          61.7911   85.4820   10.9305 C.ar    1  UNL1        0.0125
     17 C          60.2825   89.9825   10.3696 C.3     1  UNL1        0.0937
     18 C          58.6466   91.5493   11.6421 C.3     1  UNL1        0.0018
     19 C          59.3283   90.2205   11.5023 C.3     1  UNL1        0.0199
     20 C          59.0559   89.1296   12.4952 C.3     1  UNL1        0.0018
     21 C          63.9334   90.4007   12.6533 C.3     1  UNL1        0.1075
     22 N          64.2716   89.2347   13.5343 N.am    1  UNL1       -0.2695
     23 C          63.4876   88.9910   14.7896 C.2     1  UNL1        0.4020
     24 O          62.3655   89.9133   15.1641 O.2     1  UNL1       -0.2264
     25 H          65.0081   88.6294   13.2885 H       1  UNL1        0.1528
     26 O          63.8258   87.8250   15.6706 O.3     1  UNL1       -0.4291
     27 C          64.5917   86.6617   15.1139 C.3     1  UNL1        0.2447
     28 C          64.0438   85.2714   15.2445 C.ar    1  UNL1        0.0714
     29 C          64.7990   83.9993   14.9968 C.ar    1  UNL1        0.1053
     30 N          63.8665   82.8509   15.2449 N.ar    1  UNL1       -0.2350
     31 C          62.5350   83.4133   15.6458 C.ar    1  UNL1        0.1343
     32 S          62.6446   84.9092   15.6456 S.2     1  UNL1       -0.0652
     33 C          64.3866   91.7805   13.0285 C.3     1  UNL1        0.0485
     34 C          65.6306   91.9649   13.8462 C.ar    1  UNL1       -0.0204
     35 C          66.9779   91.8691   13.1939 C.ar    1  UNL1       -0.0042
     36 C          68.2219   92.0535   14.0115 C.ar    1  UNL1       -0.0003
     37 C          68.1185   92.3338   15.4815 C.ar    1  UNL1       -0.0000
     38 C          66.7712   92.4297   16.1338 C.ar    1  UNL1       -0.0003
     39 C          65.5272   92.2452   15.3161 C.ar    1  UNL1       -0.0042
@<TRIPOS>BOND
     1    18    19    1
     2    19    20    1
     3    19    17    1
     4    17     5    1
     5     5     4    1
     6     4     1    1
     7     1     2    1
     8     1    21    1
     9    21    33    1
    10    33    34    1
    11    34    35   ar
    12    35    36   ar
    13    36    37   ar
    14    37    38   ar
    15    38    39   ar
    16    21    22    1
    17    22    23   am
    18    23    24    2
    19    23    26    1
    20    26    27    1
    21    27    28    1
    22    28    29   ar
    23    29    30   ar
    24    30    31   ar
    25    31    32   ar
    26     5     6   am
    27     6     7    2
    28     6     8    1
    29     8     9   ar
    30     9    10   ar
    31    10    11   ar
    32    11    12   ar
    33    12    13   ar
    34    13    14   ar
    35    14    15   ar
    36    15    16   ar
    37    39    34   ar
    38    32    28   ar
    39    16     8   ar
    40    15    11   ar
    41     2     3    1
    42    22    25    1
@<TRIPOS>MOLECULE
*****
 39 42 0 0 0
SMALL
GASTEIGER

@<TRIPOS>ATOM
      1 C          62.8347   90.0323   12.4420 C.3     1  UNL1        0.1484
      2 O          61.6348   90.2808   13.3073 O.3     1  UNL1       -0.3810
      3 H          61.7678   91.0944   13.8186 H       1  UNL1        0.2105
      4 C          63.9908   90.9876   12.4707 C.3     1  UNL1        0.1245
      5 N          65.0373   90.8669   13.5386 N.am    1  UNL1       -0.2735
      6 C          66.2935   91.6821   13.4533 C.2     1  UNL1        0.2491
      7 O          67.3399   91.5614   14.5211 O.2     1  UNL1       -0.2699
      8 C          66.5033   92.6181   12.2999 C.ar    1  UNL1        0.0542
      9 C          67.1180   92.1147   11.0277 C.ar    1  UNL1        0.0061
     10 C          67.3278   93.0507    9.8744 C.ar    1  UNL1        0.0198
     11 C          66.9227   94.4901    9.9935 C.ar    1  UNL1        0.0879
     12 N          67.0055   95.6388    9.0325 N.ar    1  UNL1       -0.2363
     13 C          66.4419   96.8521    9.7108 C.ar    1  UNL1        0.1345
     14 S          66.0108   96.4533   11.0911 S.2     1  UNL1       -0.0645
     15 C          66.3080   94.9934   11.2658 C.ar    1  UNL1        0.0487
     16 C          66.0983   94.0574   12.4190 C.ar    1  UNL1        0.0125
     17 C          64.8274   89.9309   14.6918 C.3     1  UNL1        0.0937
     18 C          64.1047   91.7390   16.4118 C.3     1  UNL1        0.0018
     19 C          63.9787   90.3520   15.8547 C.3     1  UNL1        0.0199
     20 C          63.0039   89.3862   16.4604 C.3     1  UNL1        0.0018
     21 C          62.8784   88.8286   11.5481 C.3     1  UNL1        0.1075
     22 N          63.0491   87.4608   12.1397 N.am    1  UNL1       -0.2695
     23 C          61.8640   86.5526   12.2837 C.2     1  UNL1        0.4020
     24 O          60.5082   87.0122   11.8360 O.2     1  UNL1       -0.2264
     25 H          63.9390   87.1591   12.4336 H       1  UNL1        0.1528
     26 O          62.0348   85.1849   12.8753 O.3     1  UNL1       -0.4291
     27 C          62.9367   84.1875   12.2108 C.3     1  UNL1        0.2447
     28 C          62.9890   82.7740   12.7102 C.ar    1  UNL1        0.0714
     29 C          63.3166   82.3450   14.1097 C.ar    1  UNL1        0.1053
     30 N          63.2529   80.8472   14.1623 N.ar    1  UNL1       -0.2350
     31 C          62.8859   80.3506   12.7953 C.ar    1  UNL1        0.1343
     32 S          62.7228   81.5415   11.8979 S.2     1  UNL1       -0.0652
     33 C          62.7514   88.9927   10.0625 C.3     1  UNL1        0.0485
     34 C          61.7352   88.1917    9.3037 C.ar    1  UNL1       -0.0204
     35 C          62.0409   86.7788    8.9032 C.ar    1  UNL1       -0.0042
     36 C          61.0248   85.9778    8.1443 C.ar    1  UNL1       -0.0003
     37 C          59.7030   86.5896    7.7859 C.ar    1  UNL1       -0.0000
     38 C          59.3973   88.0025    8.1864 C.ar    1  UNL1       -0.0003
     39 C          60.4134   88.8035    8.9452 C.ar    1  UNL1       -0.0042
@<TRIPOS>BOND
     1    18    19    1
     2    19    20    1
     3    19    17    1
     4    17     5    1
     5     5     4    1
     6     4     1    1
     7     1     2    1
     8     1    21    1
     9    21    33    1
    10    33    34    1
    11    34    35   ar
    12    35    36   ar
    13    36    37   ar
    14    37    38   ar
    15    38    39   ar
    16    21    22    1
    17    22    23   am
    18    23    24    2
    19    23    26    1
    20    26    27    1
    21    27    28    1
    22    28    29   ar
    23    29    30   ar
    24    30    31   ar
    25    31    32   ar
    26     5     6   am
    27     6     7    2
    28     6     8    1
    29     8     9   ar
    30     9    10   ar
    31    10    11   ar
    32    11    12   ar
    33    12    13   ar
    34    13    14   ar
    35    14    15   ar
    36    15    16   ar
    37    39    34   ar
    38    32    28   ar
    39    16     8   ar
    40    15    11   ar
    41     2     3    1
    42    22    25    1
@<TRIPOS>MOLECULE
*****
 39 42 0 0 0
SMALL
GASTEIGER

@<TRIPOS>ATOM
      1 C          62.3894   89.3510   12.3104 C.3     1  UNL1        0.1484
      2 O          61.5958   89.9685   13.4235 O.3     1  UNL1       -0.3810
      3 H          61.6783   89.4225   14.2210 H       1  UNL1        0.2105
      4 C          63.1462   88.0776   12.5459 C.3     1  UNL1        0.1245
      5 N          63.9814   87.9189   13.7818 N.am    1  UNL1       -0.2735
      6 C          64.2991   86.5482   14.3015 C.2     1  UNL1        0.2491
      7 O          65.1341   86.3896   15.5373 O.2     1  UNL1       -0.2699
      8 C          63.7816   85.3360   13.5852 C.ar    1  UNL1        0.0542
      9 C          63.0465   85.4889   12.2868 C.ar    1  UNL1        0.0061
     10 C          62.5290   84.2767   11.5705 C.ar    1  UNL1        0.0198
     11 C          62.7468   82.9116   12.1529 C.ar    1  UNL1        0.0879
     12 N          62.3551   81.5438   11.6780 N.ar    1  UNL1       -0.2363
     13 C          62.8482   80.5455   12.6831 C.ar    1  UNL1        0.1345
     14 S          63.5447   81.2963   13.7791 S.2     1  UNL1       -0.0645
     15 C          63.4820   82.7587   13.4514 C.ar    1  UNL1        0.0487
     16 C          63.9994   83.9709   14.1675 C.ar    1  UNL1        0.0125
     17 C          64.4988   89.1311   14.4980 C.3     1  UNL1        0.0937
     18 C          63.8788   91.0925   16.0849 C.3     1  UNL1        0.0018
     19 C          63.7903   89.6408   15.7179 C.3     1  UNL1        0.0199
     20 C          62.9932   88.6988   16.5708 C.3     1  UNL1        0.0018
     21 C          62.4261   90.0069   10.9619 C.3     1  UNL1        0.1075
     22 N          63.6641   90.7227   10.5095 N.am    1  UNL1       -0.2695
     23 C          64.3498   91.6895   11.4289 C.2     1  UNL1        0.4020
     24 O          63.7973   91.9404   12.8007 O.2     1  UNL1       -0.2264
     25 H          64.0268   90.5580    9.6091 H       1  UNL1        0.1528
     26 O          65.5879   92.4053   10.9765 O.3     1  UNL1       -0.4291
     27 C          66.2158   93.4463   11.8551 C.3     1  UNL1        0.2447
     28 C          66.7388   93.0685   13.2093 C.ar    1  UNL1        0.0714
     29 C          66.5892   93.8712   14.4676 C.ar    1  UNL1        0.1053
     30 N          67.2612   93.1206   15.5789 N.ar    1  UNL1       -0.2350
     31 C          67.8260   91.8539   15.0074 C.ar    1  UNL1        0.1343
     32 S          67.5031   91.8218   13.5430 S.2     1  UNL1       -0.0652
     33 C          61.2246   89.9469   10.0659 C.3     1  UNL1        0.0485
     34 C          60.9054   88.6835    9.3229 C.ar    1  UNL1       -0.0204
     35 C          59.6701   88.6034    8.4758 C.ar    1  UNL1       -0.0042
     36 C          59.3508   87.3400    7.7329 C.ar    1  UNL1       -0.0003
     37 C          60.2668   86.1568    7.8370 C.ar    1  UNL1       -0.0000
     38 C          61.5021   86.2369    8.6840 C.ar    1  UNL1       -0.0003
     39 C          61.8214   87.5003    9.4270 C.ar    1  UNL1       -0.0042
@<TRIPOS>BOND
     1    18    19    1
     2    19    20    1
     3    19    17    1
     4    17     5    1
     5     5     4    1
     6     4     1    1
     7     1     2    1
     8     1    21    1
     9    21    33    1
    10    33    34    1
    11    34    35   ar
    12    35    36   ar
    13    36    37   ar
    14    37    38   ar
    15    38    39   ar
    16    21    22    1
    17    22    23   am
    18    23    24    2
    19    23    26    1
    20    26    27    1
    21    27    28    1
    22    28    29   ar
    23    29    30   ar
    24    30    31   ar
    25    31    32   ar
    26     5     6   am
    27     6     7    2
    28     6     8    1
    29     8     9   ar
    30     9    10   ar
    31    10    11   ar
    32    11    12   ar
    33    12    13   ar
    34    13    14   ar
    35    14    15   ar
    36    15    16   ar
    37    39    34   ar
    38    32    28   ar
    39    16     8   ar
    40    15    11   ar
    41     2     3    1
    42    22    25    1
@<TRIPOS>MOLECULE
*****
 39 42 0 0 0
SMALL
GASTEIGER

@<TRIPOS>ATOM
      1 C          61.8947   89.2595   11.9250 C.3     1  UNL1        0.1484
      2 O          60.8811   90.0271   12.7212 O.3     1  UNL1       -0.3810
      3 H          61.3361   90.5895   13.3674 H       1  UNL1        0.2105
      4 C          63.3580   89.4397   12.2012 C.3     1  UNL1        0.1245
      5 N          63.8255   90.5831   13.0521 N.am    1  UNL1       -0.2735
      6 C          64.0746   90.3755   14.5166 C.2     1  UNL1        0.2491
      7 O          64.5421   91.5189   15.3674 O.2     1  UNL1       -0.2699
      8 C          63.8562   89.0242   15.1303 C.ar    1  UNL1        0.0542
      9 C          63.1286   88.9024   16.4362 C.ar    1  UNL1        0.0061
     10 C          62.9102   87.5511   17.0499 C.ar    1  UNL1        0.0198
     11 C          63.4194   86.3218   16.3575 C.ar    1  UNL1        0.0879
     12 N          63.3543   84.8672   16.7178 N.ar    1  UNL1       -0.2363
     13 C          64.0416   84.0901   15.6345 C.ar    1  UNL1        0.1345
     14 S          64.5316   85.0644   14.6046 S.2     1  UNL1       -0.0645
     15 C          64.1471   86.4437   15.0515 C.ar    1  UNL1        0.0487
     16 C          64.3654   87.7949   14.4379 C.ar    1  UNL1        0.0125
     17 C          64.0439   91.9343   12.4384 C.3     1  UNL1        0.0937
     18 C          65.5829   92.7443   10.5083 C.3     1  UNL1        0.0018
     19 C          65.4038   92.3187   11.9354 C.3     1  UNL1        0.0199
     20 C          66.5845   92.2774   12.8596 C.3     1  UNL1        0.0018
     21 C          61.4449   88.3119   10.8528 C.3     1  UNL1        0.1075
     22 N          61.3212   88.7870    9.4355 N.am    1  UNL1       -0.2695
     23 C          60.1925   88.2988    8.5766 C.2     1  UNL1        0.4020
     24 O          59.1875   87.3354    9.1351 O.2     1  UNL1       -0.2264
     25 H          61.9808   89.4194    9.0690 H       1  UNL1        0.1528
     26 O          60.0688   88.7740    7.1593 O.3     1  UNL1       -0.4291
     27 C          58.8352   89.5043    6.7180 C.3     1  UNL1        0.2447
     28 C          58.9341   90.5887    5.6864 C.ar    1  UNL1        0.0714
     29 C          57.7877   91.3694    5.1151 C.ar    1  UNL1        0.1053
     30 N          58.3419   92.3460    4.1206 N.ar    1  UNL1       -0.2350
     31 C          59.8307   92.1689    4.0772 C.ar    1  UNL1        0.1343
     32 S          60.1967   91.0828    5.0449 S.2     1  UNL1       -0.0652
     33 C          61.1189   86.8890   11.1980 C.3     1  UNL1        0.0485
     34 C          62.0239   85.7813   10.7462 C.ar    1  UNL1       -0.0204
     35 C          62.4861   85.7251    9.3203 C.ar    1  UNL1       -0.0042
     36 C          63.3910   84.6174    8.8684 C.ar    1  UNL1       -0.0003
     37 C          63.8338   83.5661    9.8423 C.ar    1  UNL1       -0.0000
     38 C          63.3716   83.6224   11.2682 C.ar    1  UNL1       -0.0003
     39 C          62.4666   84.7300   11.7201 C.ar    1  UNL1       -0.0042
@<TRIPOS>BOND
     1    18    19    1
     2    19    20    1
     3    19    17    1
     4    17     5    1
     5     5     4    1
     6     4     1    1
     7     1     2    1
     8     1    21    1
     9    21    33    1
    10    33    34    1
    11    34    35   ar
    12    35    36   ar
    13    36    37   ar
    14    37    38   ar
    15    38    39   ar
    16    21    22    1
    17    22    23   am
    18    23    24    2
    19    23    26    1
    20    26    27    1
    21    27    28    1
    22    28    29   ar
    23    29    30   ar
    24    30    31   ar
    25    31    32   ar
    26     5     6   am
    27     6     7    2
    28     6     8    1
    29     8     9   ar
    30     9    10   ar
    31    10    11   ar
    32    11    12   ar
    33    12    13   ar
    34    13    14   ar
    35    14    15   ar
    36    15    16   ar
    37    39    34   ar
    38    32    28   ar
    39    16     8   ar
    40    15    11   ar
    41     2     3    1
    42    22    25    1
@<TRIPOS>MOLECULE
*****
 39 42 0 0 0
SMALL
GASTEIGER

@<TRIPOS>ATOM
      1 C          62.4448   89.4098   12.3487 C.3     1  UNL1        0.1484
      2 O          61.5906   90.0093   13.4263 O.3     1  UNL1       -0.3810
      3 H          61.6108   89.4382   14.2101 H       1  UNL1        0.2105
      4 C          63.1621   88.1154   12.5935 C.3     1  UNL1        0.1245
      5 N          63.9902   87.9392   13.8317 N.am    1  UNL1       -0.2735
      6 C          64.3103   86.5612   14.3302 C.2     1  UNL1        0.2491
      7 O          65.1384   86.3851   15.5684 O.2     1  UNL1       -0.2699
      8 C          63.8022   85.3592   13.5905 C.ar    1  UNL1        0.0542
      9 C          63.1391   85.5252   12.2554 C.ar    1  UNL1        0.0061
     10 C          62.6310   84.3232   11.5156 C.ar    1  UNL1        0.0198
     11 C          62.7861   82.9553   12.1111 C.ar    1  UNL1        0.0879
     12 N          62.3873   81.5955   11.6193 N.ar    1  UNL1       -0.2363
     13 C          62.8040   80.5890   12.6505 C.ar    1  UNL1        0.1345
     14 S          63.4604   81.3268   13.7797 S.2     1  UNL1       -0.0645
     15 C          63.4492   82.7893   13.4463 C.ar    1  UNL1        0.0487
     16 C          63.9573   83.9912   14.1860 C.ar    1  UNL1        0.0125
     17 C          64.4983   89.1412   14.5714 C.3     1  UNL1        0.0937
     18 C          62.9353   88.6837   16.5957 C.3     1  UNL1        0.0018
     19 C          63.7778   89.6300   15.7928 C.3     1  UNL1        0.0199
     20 C          63.8998   91.0652   16.2114 C.3     1  UNL1        0.0018
     21 C          62.5817   90.1047   11.0265 C.3     1  UNL1        0.1075
     22 N          63.8658   90.7933   10.6704 N.am    1  UNL1       -0.2695
     23 C          64.5133   91.7262   11.6505 C.2     1  UNL1        0.4020
     24 O          63.8766   91.9705   12.9865 O.2     1  UNL1       -0.2264
     25 H          64.2837   90.6329    9.7936 H       1  UNL1        0.1528
     26 O          65.7975   92.4148   11.2945 O.3     1  UNL1       -0.4291
     27 C          65.9915   93.8627   11.6347 C.3     1  UNL1        0.2447
     28 C          66.5292   94.8100   10.6035 C.ar    1  UNL1        0.0714
     29 C          66.4751   96.3076   10.6686 C.ar    1  UNL1        0.1053
     30 N          67.1277   96.8492    9.4314 N.ar    1  UNL1       -0.2350
     31 C          67.5852   95.6864    8.6016 C.ar    1  UNL1        0.1343
     32 S          67.2152   94.4261    9.3260 S.2     1  UNL1       -0.0652
     33 C          61.4343   90.1110   10.0603 C.3     1  UNL1        0.0485
     34 C          61.0442   88.8482    9.3510 C.ar    1  UNL1       -0.0204
     35 C          61.9137   87.6303    9.4549 C.ar    1  UNL1       -0.0042
     36 C          61.5236   86.3675    8.7457 C.ar    1  UNL1       -0.0003
     37 C          60.2640   86.3225    7.9324 C.ar    1  UNL1       -0.0000
     38 C          59.3945   87.5403    7.8285 C.ar    1  UNL1       -0.0003
     39 C          59.7846   88.8031    8.5377 C.ar    1  UNL1       -0.0042
@<TRIPOS>BOND
     1    18    19    1
     2    19    20    1
     3    19    17    1
     4    17     5    1
     5     5     4    1
     6     4     1    1
     7     1     2    1
     8     1    21    1
     9    21    33    1
    10    33    34    1
    11    34    35   ar
    12    35    36   ar
    13    36    37   ar
    14    37    38   ar
    15    38    39   ar
    16    21    22    1
    17    22    23   am
    18    23    24    2
    19    23    26    1
    20    26    27    1
    21    27    28    1
    22    28    29   ar
    23    29    30   ar
    24    30    31   ar
    25    31    32   ar
    26     5     6   am
    27     6     7    2
    28     6     8    1
    29     8     9   ar
    30     9    10   ar
    31    10    11   ar
    32    11    12   ar
    33    12    13   ar
    34    13    14   ar
    35    14    15   ar
    36    15    16   ar
    37    39    34   ar
    38    32    28   ar
    39    16     8   ar
    40    15    11   ar
    41     2     3    1
    42    22    25    1
@<TRIPOS>MOLECULE
*****
 39 42 0 0 0
SMALL
GASTEIGER

@<TRIPOS>ATOM
      1 C          62.3986   85.8631   11.4174 C.3     1  UNL1        0.1484
      2 O          62.8233   85.0848   10.2075 O.3     1  UNL1       -0.3810
      3 H          63.1492   84.2133   10.4816 H       1  UNL1        0.2105
      4 C          62.5193   85.2526   12.7822 C.3     1  UNL1        0.1245
      5 N          63.7777   84.5371   13.1753 N.am    1  UNL1       -0.2735
      6 C          64.6036   85.0456   14.3195 C.2     1  UNL1        0.2491
      7 O          65.8619   84.3301   14.7125 O.2     1  UNL1       -0.2699
      8 C          64.1710   86.2698   15.0707 C.ar    1  UNL1        0.0542
      9 C          63.3896   86.1316   16.3436 C.ar    1  UNL1        0.0061
     10 C          62.9571   87.3559   17.0948 C.ar    1  UNL1        0.0198
     11 C          63.3059   88.7182   16.5731 C.ar    1  UNL1        0.0879
     12 N          63.0185   90.0958   17.0924 N.ar    1  UNL1       -0.2363
     13 C          63.6223   91.0853   16.1404 C.ar    1  UNL1        0.1345
     14 S          64.2829   90.3193   15.0328 S.2     1  UNL1       -0.0645
     15 C          64.0873   88.8564   15.3001 C.ar    1  UNL1        0.0487
     16 C          64.5199   87.6322   14.5490 C.ar    1  UNL1        0.0125
     17 C          64.2102   83.3129   12.4240 C.3     1  UNL1        0.0937
     18 C          62.7254   81.5926   13.6834 C.3     1  UNL1        0.0018
     19 C          63.3354   82.0945   12.4082 C.3     1  UNL1        0.0199
     20 C          63.0706   81.3780   11.1173 C.3     1  UNL1        0.0018
     21 C          61.8533   87.2519   11.2625 C.3     1  UNL1        0.1075
     22 N          62.7544   88.4365   11.4482 N.am    1  UNL1       -0.2695
     23 C          62.2261   89.6885   12.0834 C.2     1  UNL1        0.4020
     24 O          60.7966   89.7558   12.5328 O.2     1  UNL1       -0.2264
     25 H          63.6927   88.3923   11.1532 H       1  UNL1        0.1528
     26 O          63.1273   90.8731   12.2690 O.3     1  UNL1       -0.4291
     27 C          63.9882   91.3456   11.1353 C.3     1  UNL1        0.2447
     28 C          65.0515   92.3751   11.3794 C.ar    1  UNL1        0.0714
     29 C          65.8766   92.5123   12.6246 C.ar    1  UNL1        0.1053
     30 N          66.8114   93.6702   12.4359 N.ar    1  UNL1       -0.2350
     31 C          66.5640   94.2485   11.0742 C.ar    1  UNL1        0.1343
     32 S          65.4764   93.4481   10.4213 S.2     1  UNL1       -0.0652
     33 C          60.4068   87.4559   10.9220 C.3     1  UNL1        0.0485
     34 C          60.0097   87.8160    9.5211 C.ar    1  UNL1       -0.0204
     35 C          59.4444   86.7680    8.6089 C.ar    1  UNL1       -0.0042
     36 C          59.0473   87.1281    7.2079 C.ar    1  UNL1       -0.0003
     37 C          59.2153   88.5362    6.7192 C.ar    1  UNL1       -0.0000
     38 C          59.7806   89.5842    7.6313 C.ar    1  UNL1       -0.0003
     39 C          60.1777   89.2242    9.0323 C.ar    1  UNL1       -0.0042
@<TRIPOS>BOND
     1    18    19    1
     2    19    20    1
     3    19    17    1
     4    17     5    1
     5     5     4    1
     6     4     1    1
     7     1     2    1
     8     1    21    1
     9    21    33    1
    10    33    34    1
    11    34    35   ar
    12    35    36   ar
    13    36    37   ar
    14    37    38   ar
    15    38    39   ar
    16    21    22    1
    17    22    23   am
    18    23    24    2
    19    23    26    1
    20    26    27    1
    21    27    28    1
    22    28    29   ar
    23    29    30   ar
    24    30    31   ar
    25    31    32   ar
    26     5     6   am
    27     6     7    2
    28     6     8    1
    29     8     9   ar
    30     9    10   ar
    31    10    11   ar
    32    11    12   ar
    33    12    13   ar
    34    13    14   ar
    35    14    15   ar
    36    15    16   ar
    37    39    34   ar
    38    32    28   ar
    39    16     8   ar
    40    15    11   ar
    41     2     3    1
    42    22    25    1
@<TRIPOS>MOLECULE
*****
 39 42 0 0 0
SMALL
GASTEIGER

@<TRIPOS>ATOM
      1 C          63.5409   89.9743   12.4041 C.3     1  UNL1        0.1484
      2 O          63.8077   91.1138   11.4657 O.3     1  UNL1       -0.3810
      3 H          63.4938   90.8816   10.5777 H       1  UNL1        0.2105
      4 C          62.8801   88.7259   11.8993 C.3     1  UNL1        0.1245
      5 N          61.6530   88.8210   11.0418 N.am    1  UNL1       -0.2735
      6 C          61.2316   87.6511   10.2029 C.2     1  UNL1        0.2491
      7 O          60.0046   87.7462    9.3455 O.2     1  UNL1       -0.2699
      8 C          62.0374   86.3860   10.2216 C.ar    1  UNL1        0.0542
      9 C          62.6529   85.8701    8.9548 C.ar    1  UNL1        0.0061
     10 C          63.4587   84.6049    8.9734 C.ar    1  UNL1        0.0198
     11 C          63.6489   83.8559   10.2590 C.ar    1  UNL1        0.0879
     12 N          64.3860   82.5904   10.5836 N.ar    1  UNL1       -0.2363
     13 C          64.2261   82.3244   12.0511 C.ar    1  UNL1        0.1345
     14 S          63.3901   83.4253   12.6334 S.2     1  UNL1       -0.0645
     15 C          63.0334   84.3718   11.5258 C.ar    1  UNL1        0.0487
     16 C          62.2277   85.6369   11.5071 C.ar    1  UNL1        0.0125
     17 C          60.8473   90.0861   11.0232 C.3     1  UNL1        0.0937
     18 C          58.6645   91.3652   11.6145 C.3     1  UNL1        0.0018
     19 C          59.5326   90.1487   11.7428 C.3     1  UNL1        0.0199
     20 C          59.0861   88.9947   12.5907 C.3     1  UNL1        0.0018
     21 C          63.9351   90.0832   13.8473 C.3     1  UNL1        0.1075
     22 N          65.2035   90.7880   14.2273 N.am    1  UNL1       -0.2695
     23 C          65.2064   91.7656   15.3650 C.2     1  UNL1        0.4020
     24 O          63.9409   92.0382   16.1228 O.2     1  UNL1       -0.2264
     25 H          66.0340   90.6091   13.7299 H       1  UNL1        0.1528
     26 O          66.4748   92.4704   15.7450 O.3     1  UNL1       -0.4291
     27 C          67.0843   93.4733   14.8108 C.3     1  UNL1        0.2447
     28 C          67.0839   93.2185   13.3326 C.ar    1  UNL1        0.0714
     29 C          67.9083   92.1914   12.6147 C.ar    1  UNL1        0.1053
     30 N          67.5929   92.2843   11.1512 N.ar    1  UNL1       -0.2350
     31 C          66.5735   93.3687   10.9646 C.ar    1  UNL1        0.1343
     32 S          66.2590   93.9461   12.3128 S.2     1  UNL1       -0.0652
     33 C          63.0608   89.4872   14.9105 C.3     1  UNL1        0.0485
     34 C          63.3687   88.1252   15.4585 C.ar    1  UNL1       -0.0204
     35 C          64.2559   87.1909   14.6904 C.ar    1  UNL1       -0.0042
     36 C          64.5639   85.8289   15.2383 C.ar    1  UNL1       -0.0003
     37 C          63.9847   85.4013   16.5542 C.ar    1  UNL1       -0.0000
     38 C          63.0976   86.3356   17.3223 C.ar    1  UNL1       -0.0003
     39 C          62.7896   87.6976   16.7744 C.ar    1  UNL1       -0.0042
@<TRIPOS>BOND
     1    18    19    1
     2    19    20    1
     3    19    17    1
     4    17     5    1
     5     5     4    1
     6     4     1    1
     7     1     2    1
     8     1    21    1
     9    21    33    1
    10    33    34    1
    11    34    35   ar
    12    35    36   ar
    13    36    37   ar
    14    37    38   ar
    15    38    39   ar
    16    21    22    1
    17    22    23   am
    18    23    24    2
    19    23    26    1
    20    26    27    1
    21    27    28    1
    22    28    29   ar
    23    29    30   ar
    24    30    31   ar
    25    31    32   ar
    26     5     6   am
    27     6     7    2
    28     6     8    1
    29     8     9   ar
    30     9    10   ar
    31    10    11   ar
    32    11    12   ar
    33    12    13   ar
    34    13    14   ar
    35    14    15   ar
    36    15    16   ar
    37    39    34   ar
    38    32    28   ar
    39    16     8   ar
    40    15    11   ar
    41     2     3    1
    42    22    25    1
@<TRIPOS>MOLECULE
*****
 39 42 0 0 0
SMALL
GASTEIGER

@<TRIPOS>ATOM
      1 C          62.9420   90.5592   10.9268 C.3     1  UNL1        0.1484
      2 O          62.9114   91.6334    9.8801 O.3     1  UNL1       -0.3810
      3 H          63.7501   92.1206    9.8923 H       1  UNL1        0.2105
      4 C          64.1579   90.3855   11.7877 C.3     1  UNL1        0.1245
      5 N          64.7561   91.5691   12.4886 N.am    1  UNL1       -0.2735
      6 C          64.8604   91.5810   13.9849 C.2     1  UNL1        0.2491
      7 O          65.4585   92.7645   14.6857 O.2     1  UNL1       -0.2699
      8 C          64.3663   90.4091   14.7804 C.ar    1  UNL1        0.0542
      9 C          63.5263   90.6329   16.0028 C.ar    1  UNL1        0.0061
     10 C          63.0323   89.4610   16.7983 C.ar    1  UNL1        0.0198
     11 C          63.3783   88.0654   16.3713 C.ar    1  UNL1        0.0879
     12 N          63.0375   86.7247   16.9514 N.ar    1  UNL1       -0.2363
     13 C          63.6669   85.6724   16.0874 C.ar    1  UNL1        0.1345
     14 S          64.3967   86.3626   14.9734 S.2     1  UNL1       -0.0645
     15 C          64.2184   87.8416   15.1489 C.ar    1  UNL1        0.0487
     16 C          64.7124   89.0134   14.3534 C.ar    1  UNL1        0.0125
     17 C          65.2501   92.7409   11.6931 C.3     1  UNL1        0.0937
     18 C          67.7460   92.0557   11.9190 C.3     1  UNL1        0.0018
     19 C          66.6526   92.7486   11.1612 C.3     1  UNL1        0.0199
     20 C          66.9617   93.4492    9.8714 C.3     1  UNL1        0.0018
     21 C          61.7566   89.6589   11.1125 C.3     1  UNL1        0.1075
     22 N          61.8726   88.4335   11.9696 N.am    1  UNL1       -0.2695
     23 C          62.3097   87.1329   11.3635 C.2     1  UNL1        0.4020
     24 O          62.6309   87.0578    9.9003 O.2     1  UNL1       -0.2264
     25 H          61.6618   88.4828   12.9300 H       1  UNL1        0.1528
     26 O          62.4257   85.9074   12.2207 O.3     1  UNL1       -0.4291
     27 C          62.6401   84.5655   11.5858 C.3     1  UNL1        0.2447
     28 C          62.8385   83.3522   12.4451 C.ar    1  UNL1        0.0714
     29 C          62.4493   83.2203   13.8878 C.ar    1  UNL1        0.1053
     30 N          62.8312   81.8444   14.3469 N.ar    1  UNL1       -0.2350
     31 C          63.4564   81.1258   13.1881 C.ar    1  UNL1        0.1343
     32 S          63.4609   82.0577   12.0128 S.2     1  UNL1       -0.0652
     33 C          60.4554   89.9842   10.4409 C.3     1  UNL1        0.0485
     34 C          59.9736   89.1465    9.2937 C.ar    1  UNL1       -0.0204
     35 C          59.5373   87.7309    9.5300 C.ar    1  UNL1       -0.0042
     36 C          59.0554   86.8932    8.3828 C.ar    1  UNL1       -0.0003
     37 C          59.0098   87.4710    6.9993 C.ar    1  UNL1       -0.0000
     38 C          59.4461   88.8866    6.7630 C.ar    1  UNL1       -0.0003
     39 C          59.9279   89.7243    7.9102 C.ar    1  UNL1       -0.0042
@<TRIPOS>BOND
     1    18    19    1
     2    19    20    1
     3    19    17    1
     4    17     5    1
     5     5     4    1
     6     4     1    1
     7     1     2    1
     8     1    21    1
     9    21    33    1
    10    33    34    1
    11    34    35   ar
    12    35    36   ar
    13    36    37   ar
    14    37    38   ar
    15    38    39   ar
    16    21    22    1
    17    22    23   am
    18    23    24    2
    19    23    26    1
    20    26    27    1
    21    27    28    1
    22    28    29   ar
    23    29    30   ar
    24    30    31   ar
    25    31    32   ar
    26     5     6   am
    27     6     7    2
    28     6     8    1
    29     8     9   ar
    30     9    10   ar
    31    10    11   ar
    32    11    12   ar
    33    12    13   ar
    34    13    14   ar
    35    14    15   ar
    36    15    16   ar
    37    39    34   ar
    38    32    28   ar
    39    16     8   ar
    40    15    11   ar
    41     2     3    1
    42    22    25    1
