@<TRIPOS>MOLECULE
*****
 43 47 0 0 0
SMALL
GASTEIGER

@<TRIPOS>ATOM
      1 C          62.9108   86.6233   11.7081 C.3     1  UNL1        0.1696
      2 C          63.0699   85.5714   12.7655 C.3     1  UNL1        0.1275
      3 N          63.1922   85.7487   14.2500 N.am    1  UNL1       -0.2493
      4 C          63.3408   84.4861   15.0461 C.2     1  UNL1        0.2875
      5 O          63.4706   84.5516   16.5391 O.2     1  UNL1       -0.2662
      6 C          63.1854   87.0215   15.0437 C.ar    1  UNL1        0.0679
      7 C          63.3335   86.7526   16.5119 C.ar    1  UNL1        0.0162
      8 C          63.3510   87.8937   17.4853 C.ar    1  UNL1        0.0014
      9 C          63.2204   89.3037   16.9904 C.ar    1  UNL1        0.0014
     10 C          63.0723   89.5726   15.5222 C.ar    1  UNL1        0.0162
     11 C          63.0548   88.4315   14.5488 C.ar    1  UNL1        0.0679
     12 N          62.8987   88.9168   13.1381 N.am    1  UNL1       -0.2517
     13 C          62.8346   88.1122   11.8738 C.2     1  UNL1        0.2493
     14 O          62.6729   88.9005   10.6081 O.2     1  UNL1       -0.2727
     15 C          63.3595   83.1578   14.3493 C.ar    1  UNL1        0.1984
     16 C          64.3621   82.7131   13.3259 C.ar    1  UNL1        0.0450
     17 C          64.0012   81.3216   12.8977 C.ar    1  UNL1        0.0362
     18 C          62.7757   80.9063   13.6564 C.ar    1  UNL1        0.1235
     19 C          62.0705   79.5876   13.5387 C.3     1  UNL1        0.0725
     20 O          62.3791   82.0411   14.5536 O.2     1  UNL1       -0.4531
     21 C          61.4967   86.1372    9.5835 C.2     1  UNL1        0.2371
     22 O          60.2736   86.6583   10.2782 O.2     1  UNL1       -0.2737
     23 N          62.8152   86.1197   10.2984 N.am    1  UNL1       -0.2959
     24 H          63.6179   85.7777    9.8424 H       1  UNL1        0.1499
     25 C          61.4011   85.6336    8.1738 C.3     1  UNL1        0.1316
     26 C          62.6258   85.1203    7.4760 C.3     1  UNL1        0.0270
     27 C          59.2446   86.8884    7.4493 C.3     1  UNL1        0.0862
     28 N          60.0809   85.6433    7.4618 N.3     1  UNL1       -0.2902
     29 H          60.2698   85.4057    6.4880 H       1  UNL1        0.1237
     30 C          62.7926   90.4035   12.9694 C.3     1  UNL1        0.1278
     31 C          63.9066   91.1655   12.3148 C.ar    1  UNL1        0.0320
     32 C          63.7957   91.5657   10.8735 C.ar    1  UNL1        0.1363
     33 C          64.9096   92.3277   10.2188 C.ar    1  UNL1        0.0366
     34 C          66.1345   92.6894   11.0055 C.ar    1  UNL1        0.0031
     35 C          66.2454   92.2892   12.4469 C.ar    1  UNL1        0.0004
     36 C          67.4702   92.6509   13.2337 C.ar    1  UNL1        0.0067
     37 C          67.5810   92.2507   14.6750 C.ar    1  UNL1        0.0346
     38 BR         68.8058   92.6124   15.4617 Br      1  UNL1       -0.0490
     39 C          66.4671   91.4887   15.3297 C.ar    1  UNL1        0.0067
     40 C          65.2423   91.1270   14.5429 C.ar    1  UNL1        0.0003
     41 C          65.1314   91.5272   13.1016 C.ar    1  UNL1        0.0006
     42 O          62.5709   91.2040   10.0867 O.3     1  UNL1       -0.4717
     43 C          61.1294   90.9902   10.4421 C.3     1  UNL1        0.2525
@<TRIPOS>BOND
     1    27    28    1
     2    28    25    1
     3    25    26    1
     4    25    21    1
     5    21    22    2
     6    21    23   am
     7     1    23    1
     8     1     2    1
     9     2     3    1
    10     3     4   am
    11     4     5    2
    12     4    15    1
    13    15    16   ar
    14    16    17   ar
    15    17    18   ar
    16    18    19    1
    17    18    20   ar
    18     3     6    1
    19     6     7   ar
    20     7     8   ar
    21     8     9   ar
    22     9    10   ar
    23    10    11   ar
    24    11    12    1
    25    12    30    1
    26    30    31    1
    27    31    32   ar
    28    32    42    1
    29    42    43    1
    30    32    33   ar
    31    33    34   ar
    32    34    35   ar
    33    35    36   ar
    34    36    37   ar
    35    37    38    1
    36    37    39   ar
    37    39    40   ar
    38    40    41   ar
    39    12    13   am
    40    13    14    2
    41    13     1    1
    42    20    15   ar
    43    11     6   ar
    44    41    31   ar
    45    41    35   ar
    46    28    29    1
    47    23    24    1
@<TRIPOS>MOLECULE
*****
 43 47 0 0 0
SMALL
GASTEIGER

@<TRIPOS>ATOM
      1 C          60.6649   93.1770   -0.7682 C.3     1  UNL1        0.1696
      2 C          61.7166   94.2176   -1.0156 C.3     1  UNL1        0.1275
      3 N          61.9572   95.0279   -2.2548 N.am    1  UNL1       -0.2493
      4 C          63.1006   95.9964   -2.1872 C.2     1  UNL1        0.2875
      5 O          63.4268   96.8557   -3.3728 O.2     1  UNL1       -0.2662
      6 C          61.2056   94.9978   -3.5526 C.ar    1  UNL1        0.0679
      7 C          61.7755   95.9739   -4.5386 C.ar    1  UNL1        0.0162
      8 C          61.1675   96.1021   -5.9039 C.ar    1  UNL1        0.0014
      9 C          59.9896   95.2542   -6.2830 C.ar    1  UNL1        0.0014
     10 C          59.4198   94.2781   -5.2969 C.ar    1  UNL1        0.0162
     11 C          60.0278   94.1499   -3.9317 C.ar    1  UNL1        0.0679
     12 N          59.3106   93.1227   -3.1066 N.am    1  UNL1       -0.2517
     13 C          59.5941   92.6897   -1.6987 C.2     1  UNL1        0.2493
     14 O          58.6870   91.6293   -1.1488 O.2     1  UNL1       -0.2727
     15 C          63.9179   96.1058   -0.9342 C.ar    1  UNL1        0.1984
     16 C          65.3818   95.8040   -0.8071 C.ar    1  UNL1        0.0450
     17 C          65.7834   96.0478    0.6173 C.ar    1  UNL1        0.0362
     18 C          64.5678   96.5003    1.3707 C.ar    1  UNL1        0.1235
     19 C          64.5144   96.8547    2.8273 C.3     1  UNL1        0.0725
     20 O          63.4149   96.5361    0.4118 O.2     1  UNL1       -0.4531
     21 C          60.2412   93.3185    1.7912 C.2     1  UNL1        0.2371
     22 O          59.7735   94.7352    1.6355 O.2     1  UNL1       -0.2737
     23 N          60.6870   92.5394    0.5894 N.am    1  UNL1       -0.2959
     24 H          60.9940   91.6096    0.6916 H       1  UNL1        0.1499
     25 C          60.2633   92.6809    3.1488 C.3     1  UNL1        0.1316
     26 C          61.4494   91.8683    3.5766 C.3     1  UNL1        0.0270
     27 C          58.5014   91.6632    4.7644 C.3     1  UNL1        0.0862
     28 N          59.0992   92.8558    4.0785 N.3     1  UNL1       -0.2902
     29 H          59.4021   93.4963    4.8122 H       1  UNL1        0.1237
     30 C          58.1574   92.4379   -3.7784 C.3     1  UNL1        0.1278
     31 C          57.0457   93.2506   -4.3731 C.ar    1  UNL1        0.0320
     32 C          56.7550   93.1622   -5.8420 C.ar    1  UNL1        0.1363
     33 C          55.6433   93.9748   -6.4368 C.ar    1  UNL1        0.0366
     34 C          54.8223   94.8758   -5.5627 C.ar    1  UNL1        0.0031
     35 C          55.1130   94.9642   -4.0937 C.ar    1  UNL1        0.0004
     36 C          54.2919   95.8652   -3.2196 C.ar    1  UNL1        0.0067
     37 C          54.5826   95.9536   -1.7507 C.ar    1  UNL1        0.0346
     38 BR         53.7616   96.8546   -0.8766 Br      1  UNL1       -0.0490
     39 C          55.6944   95.1410   -1.1559 C.ar    1  UNL1        0.0067
     40 C          56.5153   94.2400   -2.0301 C.ar    1  UNL1        0.0003
     41 C          56.2247   94.1516   -3.4989 C.ar    1  UNL1        0.0006
     42 O          57.5760   92.2612   -6.7162 O.3     1  UNL1       -0.4717
     43 C          57.2884   90.9985   -7.4731 C.3     1  UNL1        0.2525
@<TRIPOS>BOND
     1    27    28    1
     2    28    25    1
     3    25    26    1
     4    25    21    1
     5    21    22    2
     6    21    23   am
     7     1    23    1
     8     1     2    1
     9     2     3    1
    10     3     4   am
    11     4     5    2
    12     4    15    1
    13    15    16   ar
    14    16    17   ar
    15    17    18   ar
    16    18    19    1
    17    18    20   ar
    18     3     6    1
    19     6     7   ar
    20     7     8   ar
    21     8     9   ar
    22     9    10   ar
    23    10    11   ar
    24    11    12    1
    25    12    30    1
    26    30    31    1
    27    31    32   ar
    28    32    42    1
    29    42    43    1
    30    32    33   ar
    31    33    34   ar
    32    34    35   ar
    33    35    36   ar
    34    36    37   ar
    35    37    38    1
    36    37    39   ar
    37    39    40   ar
    38    40    41   ar
    39    12    13   am
    40    13    14    2
    41    13     1    1
    42    20    15   ar
    43    11     6   ar
    44    41    31   ar
    45    41    35   ar
    46    28    29    1
    47    23    24    1
@<TRIPOS>MOLECULE
*****
 43 47 0 0 0
SMALL
GASTEIGER

@<TRIPOS>ATOM
      1 C          61.8167   86.0753   10.8438 C.3     1  UNL1        0.1696
      2 C          62.5544   84.8941   11.4011 C.3     1  UNL1        0.1275
      3 N          63.4761   84.8400   12.5832 N.am    1  UNL1       -0.2493
      4 C          64.0639   83.4942   12.8891 C.2     1  UNL1        0.2875
      5 O          64.9987   83.3304   14.0508 O.2     1  UNL1       -0.2662
      6 C          63.8878   85.9535   13.5001 C.ar    1  UNL1        0.0679
      7 C          64.8300   85.4691   14.5619 C.ar    1  UNL1        0.0162
      8 C          65.3639   86.4276   15.5848 C.ar    1  UNL1        0.0014
      9 C          64.9555   87.8704   15.5459 C.ar    1  UNL1        0.0014
     10 C          64.0133   88.3547   14.4840 C.ar    1  UNL1        0.0162
     11 C          63.4795   87.3963   13.4611 C.ar    1  UNL1        0.0679
     12 N          62.5585   88.0819   12.4957 N.am    1  UNL1       -0.2517
     13 C          61.8185   87.4940   11.3309 C.2     1  UNL1        0.2493
     14 O          60.9679   88.4514   10.5500 O.2     1  UNL1       -0.2727
     15 C          63.7170   82.3122   12.0332 C.ar    1  UNL1        0.1984
     16 C          63.8373   82.2393   10.5398 C.ar    1  UNL1        0.0450
     17 C          63.3835   80.8776   10.1041 C.ar    1  UNL1        0.0362
     18 C          62.9826   80.1089   11.3283 C.ar    1  UNL1        0.1235
     19 C          62.4663   78.7008   11.3554 C.3     1  UNL1        0.0725
     20 O          63.1887   80.9956   12.5205 O.2     1  UNL1       -0.4531
     21 C          61.6049   85.5875    8.3007 C.2     1  UNL1        0.2371
     22 O          63.0976   85.6471    8.1650 O.2     1  UNL1       -0.2737
     23 N          60.9645   85.8016    9.6401 N.am    1  UNL1       -0.2959
     24 H          59.9848   85.7625    9.7292 H       1  UNL1        0.1499
     25 C          60.7527   85.3138    7.0971 C.3     1  UNL1        0.1316
     26 C          61.3016   84.5081    5.9570 C.3     1  UNL1        0.0270
     27 C          59.0566   87.2396    7.5025 C.3     1  UNL1        0.0862
     28 N          59.3517   85.8457    7.0334 N.3     1  UNL1       -0.2902
     29 H          59.0620   85.7963    6.0567 H       1  UNL1        0.1237
     30 C          62.3500   89.5494   12.7256 C.3     1  UNL1        0.1278
     31 C          63.2719   90.5468   12.0888 C.ar    1  UNL1        0.0320
     32 C          63.1466   90.8566   10.6265 C.ar    1  UNL1        0.1363
     33 C          64.0684   91.8540    9.9895 C.ar    1  UNL1        0.0366
     34 C          65.1153   92.5415   10.8149 C.ar    1  UNL1        0.0031
     35 C          65.2405   92.2316   12.2773 C.ar    1  UNL1        0.0004
     36 C          66.2875   92.9191   13.1026 C.ar    1  UNL1        0.0067
     37 C          66.4126   92.6092   14.5649 C.ar    1  UNL1        0.0346
     38 BR         67.4596   93.2967   15.3903 Br      1  UNL1       -0.0490
     39 C          65.4909   91.6118   15.2019 C.ar    1  UNL1        0.0067
     40 C          64.4440   90.9244   14.3764 C.ar    1  UNL1        0.0003
     41 C          64.3188   91.2343   12.9142 C.ar    1  UNL1        0.0006
     42 O          62.0997   90.1692    9.8010 O.3     1  UNL1       -0.4717
     43 C          60.6510   90.4385    9.5205 C.3     1  UNL1        0.2525
@<TRIPOS>BOND
     1    27    28    1
     2    28    25    1
     3    25    26    1
     4    25    21    1
     5    21    22    2
     6    21    23   am
     7     1    23    1
     8     1     2    1
     9     2     3    1
    10     3     4   am
    11     4     5    2
    12     4    15    1
    13    15    16   ar
    14    16    17   ar
    15    17    18   ar
    16    18    19    1
    17    18    20   ar
    18     3     6    1
    19     6     7   ar
    20     7     8   ar
    21     8     9   ar
    22     9    10   ar
    23    10    11   ar
    24    11    12    1
    25    12    30    1
    26    30    31    1
    27    31    32   ar
    28    32    42    1
    29    42    43    1
    30    32    33   ar
    31    33    34   ar
    32    34    35   ar
    33    35    36   ar
    34    36    37   ar
    35    37    38    1
    36    37    39   ar
    37    39    40   ar
    38    40    41   ar
    39    12    13   am
    40    13    14    2
    41    13     1    1
    42    20    15   ar
    43    11     6   ar
    44    41    31   ar
    45    41    35   ar
    46    28    29    1
    47    23    24    1
@<TRIPOS>MOLECULE
*****
 43 47 0 0 0
SMALL
GASTEIGER

@<TRIPOS>ATOM
      1 C          62.7637   86.3443   12.3751 C.3     1  UNL1        0.1696
      2 C          62.1655   86.9753   11.1528 C.3     1  UNL1        0.1275
      3 N          62.2863   88.3930   10.6779 N.am    1  UNL1       -0.2493
      4 C          61.5627   88.7167    9.4045 C.2     1  UNL1        0.2875
      5 O          61.6187   90.1063    8.8423 O.2     1  UNL1       -0.2662
      6 C          63.0349   89.5299   11.3080 C.ar    1  UNL1        0.0679
      7 C          62.8964   90.7892   10.5050 C.ar    1  UNL1        0.0162
      8 C          63.5707   92.0485   10.9627 C.ar    1  UNL1        0.0014
      9 C          64.3836   92.0484   12.2234 C.ar    1  UNL1        0.0014
     10 C          64.5221   90.7891   13.0264 C.ar    1  UNL1        0.0162
     11 C          63.8478   89.5299   12.5687 C.ar    1  UNL1        0.0679
     12 N          64.1127   88.3929   13.5106 N.am    1  UNL1       -0.2517
     13 C          63.6302   86.9752   13.4245 C.2     1  UNL1        0.2493
     14 O          64.0728   86.0685   14.5344 O.2     1  UNL1       -0.2727
     15 C          60.7830   87.6507    8.6931 C.ar    1  UNL1        0.1984
     16 C          59.2881   87.5418    8.6355 C.ar    1  UNL1        0.0450
     17 C          58.9426   86.3304    7.8213 C.ar    1  UNL1        0.0362
     18 C          60.2241   85.6905    7.3757 C.ar    1  UNL1        0.1235
     19 C          60.3465   84.4520    6.5383 C.3     1  UNL1        0.0725
     20 O          61.3615   86.5065    7.9145 O.2     1  UNL1       -0.4531
     21 C          63.0735   83.8615   11.6755 C.2     1  UNL1        0.2371
     22 O          64.0022   84.2870   10.5769 O.2     1  UNL1       -0.2737
     23 N          62.4543   84.8902   12.5745 N.am    1  UNL1       -0.2959
     24 H          61.8448   84.6109   13.2955 H       1  UNL1        0.1499
     25 C          62.7642   82.4074   11.8748 C.3     1  UNL1        0.1316
     26 C          63.1429   81.4087   10.8215 C.3     1  UNL1        0.0270
     27 C          62.1094   80.5037   13.5172 C.3     1  UNL1        0.0862
     28 N          62.0762   81.9518   13.1275 N.3     1  UNL1       -0.2902
     29 H          62.4925   82.4739   13.8985 H       1  UNL1        0.1237
     30 C          64.9740   88.7164   14.6953 C.3     1  UNL1        0.1278
     31 C          64.7727   90.0029   15.4400 C.ar    1  UNL1        0.0320
     32 C          63.4762   90.2651   16.1472 C.ar    1  UNL1        0.1363
     33 C          63.2749   91.5516   16.8919 C.ar    1  UNL1        0.0366
     34 C          64.3701   92.5758   16.9293 C.ar    1  UNL1        0.0031
     35 C          65.6667   92.3136   16.2220 C.ar    1  UNL1        0.0004
     36 C          66.7619   93.3378   16.2593 C.ar    1  UNL1        0.0067
     37 C          68.0584   93.0755   15.5520 C.ar    1  UNL1        0.0346
     38 BR         69.1537   94.0998   15.5894 Br      1  UNL1       -0.0490
     39 C          68.2597   91.7891   14.8074 C.ar    1  UNL1        0.0067
     40 C          67.1644   90.7649   14.7700 C.ar    1  UNL1        0.0003
     41 C          65.8680   91.0271   15.4773 C.ar    1  UNL1        0.0006
     42 O          62.3809   89.2409   16.1099 O.3     1  UNL1       -0.4717
     43 C          62.1501   87.9359   16.8125 C.3     1  UNL1        0.2525
@<TRIPOS>BOND
     1    27    28    1
     2    28    25    1
     3    25    26    1
     4    25    21    1
     5    21    22    2
     6    21    23   am
     7     1    23    1
     8     1     2    1
     9     2     3    1
    10     3     4   am
    11     4     5    2
    12     4    15    1
    13    15    16   ar
    14    16    17   ar
    15    17    18   ar
    16    18    19    1
    17    18    20   ar
    18     3     6    1
    19     6     7   ar
    20     7     8   ar
    21     8     9   ar
    22     9    10   ar
    23    10    11   ar
    24    11    12    1
    25    12    30    1
    26    30    31    1
    27    31    32   ar
    28    32    42    1
    29    42    43    1
    30    32    33   ar
    31    33    34   ar
    32    34    35   ar
    33    35    36   ar
    34    36    37   ar
    35    37    38    1
    36    37    39   ar
    37    39    40   ar
    38    40    41   ar
    39    12    13   am
    40    13    14    2
    41    13     1    1
    42    20    15   ar
    43    11     6   ar
    44    41    31   ar
    45    41    35   ar
    46    28    29    1
    47    23    24    1
@<TRIPOS>MOLECULE
*****
 43 47 0 0 0
SMALL
GASTEIGER

@<TRIPOS>ATOM
      1 C          61.3969   93.1244    0.6687 C.3     1  UNL1        0.1696
      2 C          62.5413   94.0739    0.8659 C.3     1  UNL1        0.1275
      3 N          63.1720   94.9985   -0.1328 N.am    1  UNL1       -0.2493
      4 C          64.3113   95.8295    0.3787 C.2     1  UNL1        0.2875
      5 O          65.0121   96.7873   -0.5388 O.2     1  UNL1       -0.2662
      6 C          62.8141   95.2022   -1.5752 C.ar    1  UNL1        0.0679
      7 C          63.7000   96.2263   -2.2203 C.ar    1  UNL1        0.0162
      8 C          63.5089   96.5797   -3.6655 C.ar    1  UNL1        0.0014
      9 C          62.4319   95.9089   -4.4655 C.ar    1  UNL1        0.0014
     10 C          61.5460   94.8847   -3.8204 C.ar    1  UNL1        0.0162
     11 C          61.7371   94.5314   -2.3752 C.ar    1  UNL1        0.0679
     12 N          60.7520   93.4913   -1.9304 N.am    1  UNL1       -0.2517
     13 C          60.6005   92.8651   -0.5758 C.2     1  UNL1        0.2493
     14 O          59.5085   91.8448   -0.4488 O.2     1  UNL1       -0.2727
     15 C          64.7498   95.7028    1.8076 C.ar    1  UNL1        0.1984
     16 C          65.5112   94.5529    2.3975 C.ar    1  UNL1        0.0450
     17 C          65.7359   94.8431    3.8518 C.ar    1  UNL1        0.0362
     18 C          65.1133   96.1724    4.1608 C.ar    1  UNL1        0.1235
     19 C          65.1021   96.8512    5.4984 C.3     1  UNL1        0.0725
     20 O          64.5039   96.7037    2.8974 O.2     1  UNL1       -0.4531
     21 C          60.2085   92.9791    2.9744 C.2     1  UNL1        0.2371
     22 O          59.8223   94.4246    2.8665 O.2     1  UNL1       -0.2737
     23 N          60.9958   92.3291    1.8755 N.am    1  UNL1       -0.2959
     24 H          61.2493   91.3804    1.9464 H       1  UNL1        0.1499
     25 C          59.8074   92.1838    4.1813 C.3     1  UNL1        0.1316
     26 C          60.8160   91.3208    4.8800 C.3     1  UNL1        0.0270
     27 C          57.7963   91.0703    5.3919 C.3     1  UNL1        0.0862
     28 N          58.3977   92.2514    4.6895 N.3     1  UNL1       -0.2902
     29 H          58.3572   93.0342    5.3421 H       1  UNL1        0.1237
     30 C          59.7913   93.0143   -2.9789 C.3     1  UNL1        0.1278
     31 C          58.4762   93.7117   -3.1643 C.ar    1  UNL1        0.0320
     32 C          58.0884   94.8362   -2.2505 C.ar    1  UNL1        0.1363
     33 C          56.7733   95.5336   -2.4357 C.ar    1  UNL1        0.0366
     34 C          55.8462   95.1065   -3.5349 C.ar    1  UNL1        0.0031
     35 C          56.2341   93.9820   -4.4487 C.ar    1  UNL1        0.0004
     36 C          55.3069   93.5549   -5.5478 C.ar    1  UNL1        0.0067
     37 C          55.6949   92.4304   -6.4616 C.ar    1  UNL1        0.0346
     38 BR         54.7677   92.0033   -7.5607 Br      1  UNL1       -0.0490
     39 C          57.0099   91.7330   -6.2763 C.ar    1  UNL1        0.0067
     40 C          57.9370   92.1601   -5.1772 C.ar    1  UNL1        0.0003
     41 C          57.5491   93.2845   -4.2634 C.ar    1  UNL1        0.0006
     42 O          59.0154   95.2633   -1.1513 O.3     1  UNL1       -0.4717
     43 C          59.1919   96.5322   -0.3711 C.3     1  UNL1        0.2525
@<TRIPOS>BOND
     1    27    28    1
     2    28    25    1
     3    25    26    1
     4    25    21    1
     5    21    22    2
     6    21    23   am
     7     1    23    1
     8     1     2    1
     9     2     3    1
    10     3     4   am
    11     4     5    2
    12     4    15    1
    13    15    16   ar
    14    16    17   ar
    15    17    18   ar
    16    18    19    1
    17    18    20   ar
    18     3     6    1
    19     6     7   ar
    20     7     8   ar
    21     8     9   ar
    22     9    10   ar
    23    10    11   ar
    24    11    12    1
    25    12    30    1
    26    30    31    1
    27    31    32   ar
    28    32    42    1
    29    42    43    1
    30    32    33   ar
    31    33    34   ar
    32    34    35   ar
    33    35    36   ar
    34    36    37   ar
    35    37    38    1
    36    37    39   ar
    37    39    40   ar
    38    40    41   ar
    39    12    13   am
    40    13    14    2
    41    13     1    1
    42    20    15   ar
    43    11     6   ar
    44    41    31   ar
    45    41    35   ar
    46    28    29    1
    47    23    24    1
@<TRIPOS>MOLECULE
*****
 43 47 0 0 0
SMALL
GASTEIGER

@<TRIPOS>ATOM
      1 C          62.9845   86.0064   12.0587 C.3     1  UNL1        0.1696
      2 C          62.8082   84.8334   12.9770 C.3     1  UNL1        0.1275
      3 N          62.7830   84.8154   14.4767 N.am    1  UNL1       -0.2493
      4 C          62.5869   83.4689   15.1080 C.2     1  UNL1        0.2875
      5 O          62.5464   83.3397   16.6020 O.2     1  UNL1       -0.2662
      6 C          62.9278   85.9656   15.4285 C.ar    1  UNL1        0.0679
      7 C          62.8432   85.5103   16.8552 C.ar    1  UNL1        0.0162
      8 C          62.9644   86.5075   17.9691 C.ar    1  UNL1        0.0014
      9 C          63.1703   87.9600   17.6563 C.ar    1  UNL1        0.0014
     10 C          63.2550   88.4153   16.2296 C.ar    1  UNL1        0.0162
     11 C          63.1338   87.4181   15.1157 C.ar    1  UNL1        0.0679
     12 N          63.2456   88.0790   13.7738 N.am    1  UNL1       -0.2517
     13 C          63.1792   87.4508   12.4133 C.2     1  UNL1        0.2493
     14 O          63.3271   88.3913   11.2542 O.2     1  UNL1       -0.2727
     15 C          62.4314   82.2515   14.2455 C.ar    1  UNL1        0.1984
     16 C          61.5605   81.0666   14.5416 C.ar    1  UNL1        0.0450
     17 C          61.7103   80.0882   13.4146 C.ar    1  UNL1        0.0362
     18 C          62.6737   80.6684   12.4220 C.ar    1  UNL1        0.1235
     19 C          63.1142   80.0246   11.1407 C.3     1  UNL1        0.0725
     20 O          63.1194   82.0054   12.9355 O.2     1  UNL1       -0.4531
     21 C          61.7314   85.9727    9.7831 C.2     1  UNL1        0.2371
     22 O          60.5205   86.5649   10.4412 O.2     1  UNL1       -0.2737
     23 N          62.9634   85.6935   10.5919 N.am    1  UNL1       -0.2959
     24 H          63.7582   85.3048   10.1600 H       1  UNL1        0.1499
     25 C          61.7103   85.6598    8.3163 C.3     1  UNL1        0.1316
     26 C          62.9375   85.1143    7.6480 C.3     1  UNL1        0.0270
     27 C          59.7162   87.1869    7.6518 C.3     1  UNL1        0.0862
     28 N          60.4621   85.8924    7.5177 N.3     1  UNL1       -0.2902
     29 H          60.7201   85.8017    6.5350 H       1  UNL1        0.1237
     30 C          63.4511   89.5648   13.7953 C.3     1  UNL1        0.1278
     31 C          63.2670   90.3656   12.5403 C.ar    1  UNL1        0.0320
     32 C          61.9664   90.3042   11.7956 C.ar    1  UNL1        0.1363
     33 C          61.7822   91.1050   10.5407 C.ar    1  UNL1        0.0366
     34 C          62.8986   91.9673   10.0306 C.ar    1  UNL1        0.0031
     35 C          64.1992   92.0287   10.7754 C.ar    1  UNL1        0.0004
     36 C          65.3156   92.8910   10.2653 C.ar    1  UNL1        0.0067
     37 C          66.6161   92.9523   11.0102 C.ar    1  UNL1        0.0346
     38 BR         67.7325   93.8146   10.5001 Br      1  UNL1       -0.0490
     39 C          66.8003   92.1515   12.2651 C.ar    1  UNL1        0.0067
     40 C          65.6839   91.2893   12.7751 C.ar    1  UNL1        0.0003
     41 C          64.3834   91.2279   12.0303 C.ar    1  UNL1        0.0006
     42 O          60.8499   89.4420   12.3056 O.3     1  UNL1       -0.4717
     43 C          59.3542   89.5532   12.2844 C.3     1  UNL1        0.2525
@<TRIPOS>BOND
     1    27    28    1
     2    28    25    1
     3    25    26    1
     4    25    21    1
     5    21    22    2
     6    21    23   am
     7     1    23    1
     8     1     2    1
     9     2     3    1
    10     3     4   am
    11     4     5    2
    12     4    15    1
    13    15    16   ar
    14    16    17   ar
    15    17    18   ar
    16    18    19    1
    17    18    20   ar
    18     3     6    1
    19     6     7   ar
    20     7     8   ar
    21     8     9   ar
    22     9    10   ar
    23    10    11   ar
    24    11    12    1
    25    12    30    1
    26    30    31    1
    27    31    32   ar
    28    32    42    1
    29    42    43    1
    30    32    33   ar
    31    33    34   ar
    32    34    35   ar
    33    35    36   ar
    34    36    37   ar
    35    37    38    1
    36    37    39   ar
    37    39    40   ar
    38    40    41   ar
    39    12    13   am
    40    13    14    2
    41    13     1    1
    42    20    15   ar
    43    11     6   ar
    44    41    31   ar
    45    41    35   ar
    46    28    29    1
    47    23    24    1
@<TRIPOS>MOLECULE
*****
 43 47 0 0 0
SMALL
GASTEIGER

@<TRIPOS>ATOM
      1 C          65.0855   90.5591   13.8422 C.3     1  UNL1        0.1696
      2 C          64.9948   91.3698   12.5834 C.3     1  UNL1        0.1275
      3 N          64.0471   91.2066   11.4322 N.am    1  UNL1       -0.2493
      4 C          64.2123   92.1873   10.3093 C.2     1  UNL1        0.2875
      5 O          63.3151   92.1118    9.1095 O.2     1  UNL1       -0.2662
      6 C          62.9561   90.1925   11.2554 C.ar    1  UNL1        0.0679
      7 C          62.2391   90.3806    9.9514 C.ar    1  UNL1        0.0162
      8 C          61.1094   89.4672    9.5782 C.ar    1  UNL1        0.0014
      9 C          60.6966   88.3657   10.5090 C.ar    1  UNL1        0.0014
     10 C          61.4136   88.1776   11.8130 C.ar    1  UNL1        0.0162
     11 C          62.5433   89.0910   12.1862 C.ar    1  UNL1        0.0679
     12 N          63.1197   88.7317   13.5237 N.am    1  UNL1       -0.2517
     13 C          64.2510   89.3850   14.2607 C.2     1  UNL1        0.2493
     14 O          64.5931   88.7850   15.5922 O.2     1  UNL1       -0.2727
     15 C          65.2747   93.2435   10.3860 C.ar    1  UNL1        0.1984
     16 C          66.7365   93.0450   10.1146 C.ar    1  UNL1        0.0450
     17 C          67.4270   94.3624   10.3085 C.ar    1  UNL1        0.0362
     18 C          66.3919   95.3751   10.6998 C.ar    1  UNL1        0.1235
     19 C          66.6430   96.8248   10.9919 C.3     1  UNL1        0.0725
     20 O          65.0617   94.6835   10.7477 O.2     1  UNL1       -0.4531
     21 C          66.6433   92.3950   14.8182 C.2     1  UNL1        0.2371
     22 O          66.0687   93.3934   13.8575 O.2     1  UNL1       -0.2737
     23 N          66.1517   90.9779   14.8106 N.am    1  UNL1       -0.2959
     24 H          66.5289   90.3226   15.4412 H       1  UNL1        0.1499
     25 C          67.7096   92.8137   15.7866 C.3     1  UNL1        0.1316
     26 C          68.5461   91.7767   16.4757 C.3     1  UNL1        0.0270
     27 C          69.3363   94.8146   16.1035 C.3     1  UNL1        0.0862
     28 N          67.9393   94.2695   16.0659 N.3     1  UNL1       -0.2902
     29 H          67.4394   94.7900   15.3451 H       1  UNL1        0.1237
     30 C          62.4800   87.5646   14.2156 C.3     1  UNL1        0.1278
     31 C          63.2405   86.2825   14.3823 C.ar    1  UNL1        0.0320
     32 C          63.8046   85.9140   15.7224 C.ar    1  UNL1        0.1363
     33 C          64.5652   84.6319   15.8892 C.ar    1  UNL1        0.0366
     34 C          64.7616   83.7183   14.7158 C.ar    1  UNL1        0.0031
     35 C          64.1974   84.0869   13.3756 C.ar    1  UNL1        0.0004
     36 C          64.3938   83.1733   12.2022 C.ar    1  UNL1        0.0067
     37 C          63.8297   83.5419   10.8622 C.ar    1  UNL1        0.0346
     38 BR         64.0261   82.6283    9.6888 Br      1  UNL1       -0.0490
     39 C          63.0691   84.8240   10.6954 C.ar    1  UNL1        0.0067
     40 C          62.8728   85.7375   11.8688 C.ar    1  UNL1        0.0003
     41 C          63.4369   85.3690   13.2089 C.ar    1  UNL1        0.0006
     42 O          63.6083   86.8275   16.8959 O.3     1  UNL1       -0.4717
     43 C          62.7024   86.8084   18.0912 C.3     1  UNL1        0.2525
@<TRIPOS>BOND
     1    27    28    1
     2    28    25    1
     3    25    26    1
     4    25    21    1
     5    21    22    2
     6    21    23   am
     7     1    23    1
     8     1     2    1
     9     2     3    1
    10     3     4   am
    11     4     5    2
    12     4    15    1
    13    15    16   ar
    14    16    17   ar
    15    17    18   ar
    16    18    19    1
    17    18    20   ar
    18     3     6    1
    19     6     7   ar
    20     7     8   ar
    21     8     9   ar
    22     9    10   ar
    23    10    11   ar
    24    11    12    1
    25    12    30    1
    26    30    31    1
    27    31    32   ar
    28    32    42    1
    29    42    43    1
    30    32    33   ar
    31    33    34   ar
    32    34    35   ar
    33    35    36   ar
    34    36    37   ar
    35    37    38    1
    36    37    39   ar
    37    39    40   ar
    38    40    41   ar
    39    12    13   am
    40    13    14    2
    41    13     1    1
    42    20    15   ar
    43    11     6   ar
    44    41    31   ar
    45    41    35   ar
    46    28    29    1
    47    23    24    1
