@<TRIPOS>MOLECULE
*****
 45 50 0 0 0
SMALL
GASTEIGER

@<TRIPOS>ATOM
      1 C          59.1701   89.8782    6.3768 C.2     1  UNL1        0.2461
      2 O          57.7914   89.3150    6.5553 O.2     1  UNL1       -0.2701
      3 N          60.2785   89.4529    7.2936 N.am    1  UNL1       -0.2964
      4 H          61.1834   89.8226    7.1765 H       1  UNL1        0.1501
      5 C          63.6942   91.7140    3.0671 C.3     1  UNL1        0.1305
      6 N          62.3426   92.3324    2.8645 N.ar    1  UNL1       -0.3242
      7 C          62.0042   93.4072    1.8744 C.ar    1  UNL1        0.0738
      8 C          60.5446   93.7235    2.0145 C.ar    1  UNL1       -0.0038
      9 C          59.9810   92.8442    3.0912 C.ar    1  UNL1        0.0133
     10 C          58.5995   92.7153    3.6610 C.ar    1  UNL1        0.0013
     11 C          58.3292   91.7267    4.7562 C.ar    1  UNL1        0.0046
     12 C          59.4405   90.8669    5.2816 C.ar    1  UNL1        0.0548
     13 C          60.8220   90.9958    4.7117 C.ar    1  UNL1        0.0217
     14 C          61.0922   91.9844    3.6165 C.ar    1  UNL1        0.0598
     15 C          62.9579   94.0524    0.9130 C.ar    1  UNL1        0.0968
     16 C          62.8781   93.7333   -0.5504 C.ar    1  UNL1        0.0215
     17 C          63.8318   94.3785   -1.5118 C.ar    1  UNL1        0.0146
     18 C          64.8652   95.3428   -1.0097 C.ar    1  UNL1        0.0768
     19 CL         65.8189   95.9880   -1.9710 Cl      1  UNL1       -0.0806
     20 C          64.9450   95.6618    0.4538 C.ar    1  UNL1        0.1102
     21 N          63.9913   95.0166    1.4152 N.ar    1  UNL1       -0.2415
     22 C          59.7825   94.7405    1.2178 C.3     1  UNL1        0.0238
     23 C          58.8450   94.4499    0.0836 C.3     1  UNL1        0.0044
     24 C          58.3070   95.7565   -0.4198 C.3     1  UNL1        0.0003
     25 C          58.9122   96.8548    0.4035 C.3     1  UNL1        0.0003
     26 C          59.8240   96.2268    1.4156 C.3     1  UNL1        0.0044
     27 C          60.0082   88.4642    8.3889 C.3     1  UNL1        0.1260
     28 C          59.2309   87.6133    7.4289 C.3     1  UNL1        0.0270
     29 C          58.9606   86.6247    8.5241 C.3     1  UNL1        0.0043
     30 C          59.7379   87.4756    9.4841 C.3     1  UNL1        0.0270
     31 C          60.7855   89.3151    9.3489 C.2     1  UNL1        0.2419
     32 O          60.1665   90.5551    9.9229 O.2     1  UNL1       -0.2731
     33 N          62.1818   88.9261    9.7350 N.am    1  UNL1       -0.2826
     34 H          62.5880   88.1123    9.3584 H       1  UNL1        0.1549
     35 C          62.9591   89.7772   10.6951 C.ar    1  UNL1        0.0503
     36 C          63.1450   89.3282   12.1142 C.ar    1  UNL1        0.0147
     37 C          63.9223   90.1792   13.0743 C.ar    1  UNL1        0.0013
     38 C          64.5136   91.4791   12.6153 C.ar    1  UNL1        0.0001
     39 C          64.3276   91.9280   11.1962 C.ar    1  UNL1        0.0013
     40 C          63.5503   91.0770   10.2361 C.ar    1  UNL1        0.0147
     41 C          65.2908   92.3300   13.5753 C.2     1  UNL1        0.0012
     42 C          66.5397   91.7946   14.2106 C.2     1  UNL1        0.0151
     43 C          67.3170   92.6455   15.1707 C.2     1  UNL1        0.0729
     44 O          66.7201   93.0180   16.4955 O.co2   1  UNL1       -0.5446
     45 O          68.6910   93.1240   14.8060 O.co2   1  UNL1       -0.5446
@<TRIPOS>UNITY_ATOM_ATTR
44 1
charge -1
@<TRIPOS>BOND
     1     5     6    1
     2     6     7   ar
     3     7    15    1
     4    15    16   ar
     5    16    17   ar
     6    17    18   ar
     7    18    19    1
     8    18    20   ar
     9    20    21   ar
    10     7     8   ar
    11     8    22    1
    12    22    23    1
    13    23    24    1
    14    24    25    1
    15    25    26    1
    16     8     9   ar
    17     9    10   ar
    18    10    11   ar
    19    11    12   ar
    20    12     1    1
    21     1     2    2
    22     1     3   am
    23     3    27    1
    24    27    31    1
    25    31    32    2
    26    31    33   am
    27    33    35    1
    28    35    36   ar
    29    36    37   ar
    30    37    38   ar
    31    38    41    1
    32    41    42    2
    33    42    43    1
    34    43    44   ar
    35    43    45   ar
    36    38    39   ar
    37    39    40   ar
    38    27    28    1
    39    28    29    1
    40    29    30    1
    41    12    13   ar
    42    13    14   ar
    43    14     6   ar
    44    21    15   ar
    45    26    22    1
    46    14     9   ar
    47    30    27    1
    48    40    35   ar
    49     3     4    1
    50    33    34    1
