@<TRIPOS>MOLECULE
*****
 32 35 0 0 0
SMALL
GASTEIGER

@<TRIPOS>ATOM
      1 C          65.9361   93.2861   12.4102 C.ar    1  UNL1        0.0180
      2 C          66.0157   93.4466   13.8994 C.ar    1  UNL1        0.0029
      3 C          65.4389   92.3941   14.7991 C.ar    1  UNL1        0.0189
      4 C          64.7825   91.1810   14.2096 C.ar    1  UNL1        0.0789
      5 C          64.7029   91.0205   12.7204 C.ar    1  UNL1        0.0670
      6 C          65.2797   92.0730   11.8207 C.ar    1  UNL1        0.0174
      7 N          64.2057   90.1285   15.1094 N.ar    1  UNL1       -0.2852
      8 C          63.4597   90.3734   16.3875 C.ar    1  UNL1        0.1023
      9 C          63.0665   89.0425   16.9570 C.ar    1  UNL1        0.1196
     10 N          63.5695   87.9752   16.0309 N.ar    1  UNL1       -0.2220
     11 C          64.2735   88.6464   14.8890 C.ar    1  UNL1        0.1829
     12 N          64.0464   89.8073   12.1309 N.am    1  UNL1       -0.2780
     13 C          62.7652   89.9463   11.3633 C.2     1  UNL1        0.2688
     14 O          62.1404   91.2982   11.1853 O.2     1  UNL1       -0.2681
     15 H          64.4565   88.9200   12.2477 H       1  UNL1        0.1553
     16 C          62.1088   88.7331   10.7737 C.ar    1  UNL1        0.1538
     17 C          60.8940   88.8843    9.9070 C.ar    1  UNL1        0.1226
     18 N          60.2377   87.6712    9.3175 N.ar    1  UNL1       -0.2390
     19 C          60.7961   86.3070    9.5947 C.ar    1  UNL1        0.1179
     20 C          62.0109   86.1558   10.4615 C.ar    1  UNL1        0.1005
     21 N          62.6673   87.3688   11.0510 N.ar    1  UNL1       -0.2376
     22 C          62.5694   84.7915   10.7387 C.ar    1  UNL1        0.0192
     23 C          63.4678   84.1308    9.7356 C.ar    1  UNL1        0.0015
     24 C          64.0262   82.7665   10.0129 C.ar    1  UNL1        0.0000
     25 C          63.6863   82.0629   11.2932 C.ar    1  UNL1        0.0000
     26 C          62.7879   82.7236   12.2964 C.ar    1  UNL1        0.0000
     27 C          62.2294   84.0879   12.0191 C.ar    1  UNL1        0.0015
     28 N          67.5092   93.9594   10.4553 N.2     1  UNL1       -0.0873
     29 C          66.5129   94.3386   11.5104 C.2     1  UNL1        0.0974
     30 C          66.0934   95.7702   11.6659 C.3     1  UNL1        0.0555
     31 C          67.3674   95.3987    8.2969 C.3     1  UNL1        0.2885
     32 O          68.0860   95.0119    9.5555 O.2     1  UNL1       -0.3734
@<TRIPOS>BOND
     1    31    32    1
     2    32    28    1
     3    28    29    2
     4    29    30    1
     5    29     1    1
     6     1     2   ar
     7     2     3   ar
     8     3     4   ar
     9     4     7    1
    10     7     8   ar
    11     8     9   ar
    12     9    10   ar
    13    10    11   ar
    14     4     5   ar
    15     5    12    1
    16    12    13   am
    17    13    14    2
    18    13    16    1
    19    16    17   ar
    20    17    18   ar
    21    18    19   ar
    22    19    20   ar
    23    20    22    1
    24    22    23   ar
    25    23    24   ar
    26    24    25   ar
    27    25    26   ar
    28    26    27   ar
    29    20    21   ar
    30     5     6   ar
    31     6     1   ar
    32    11     7   ar
    33    21    16   ar
    34    27    22   ar
    35    12    15    1
@<TRIPOS>MOLECULE
*****
 32 35 0 0 0
SMALL
GASTEIGER

@<TRIPOS>ATOM
      1 C          64.7945   92.1012   12.0361 C.ar    1  UNL1        0.0180
      2 C          64.2078   92.3733   10.6828 C.ar    1  UNL1        0.0029
      3 C          63.2725   91.3813   10.0575 C.ar    1  UNL1        0.0189
      4 C          62.9238   90.1171   10.7856 C.ar    1  UNL1        0.0789
      5 C          63.5106   89.8449   12.1389 C.ar    1  UNL1        0.0670
      6 C          64.4459   90.8369   12.7642 C.ar    1  UNL1        0.0174
      7 N          61.9885   89.1250   10.1603 N.ar    1  UNL1       -0.2852
      8 C          62.3480   87.7437    9.6990 C.ar    1  UNL1        0.1023
      9 C          61.1111   87.1051    9.1401 C.ar    1  UNL1        0.1196
     10 N          59.9872   88.0917    9.2560 N.ar    1  UNL1       -0.2220
     11 C          60.5295   89.3400    9.8865 C.ar    1  UNL1        0.1829
     12 N          63.1620   88.5806   12.8671 N.am    1  UNL1       -0.2780
     13 C          63.9284   88.1864   14.0947 C.2     1  UNL1        0.2688
     14 O          65.0435   89.0565   14.5943 O.2     1  UNL1       -0.2681
     15 H          62.4301   88.0095   12.5392 H       1  UNL1        0.1553
     16 C          63.5798   86.9221   14.8228 C.ar    1  UNL1        0.1538
     17 C          63.3889   86.9417   16.3105 C.ar    1  UNL1        0.1226
     18 N          63.0403   85.6775   17.0385 N.ar    1  UNL1       -0.2390
     19 C          62.8827   84.3937   16.2790 C.ar    1  UNL1        0.1179
     20 C          63.0736   84.3741   14.7913 C.ar    1  UNL1        0.1005
     21 N          63.4221   85.6383   14.0633 N.ar    1  UNL1       -0.2376
     22 C          62.9159   83.0903   14.0318 C.ar    1  UNL1        0.0192
     23 C          61.9877   82.0272   14.5400 C.ar    1  UNL1        0.0015
     24 C          61.8300   80.7434   13.7805 C.ar    1  UNL1        0.0000
     25 C          62.6005   80.5226   12.5126 C.ar    1  UNL1        0.0000
     26 C          63.5287   81.5857   12.0043 C.ar    1  UNL1        0.0000
     27 C          63.6864   82.8695   12.7639 C.ar    1  UNL1        0.0015
     28 N          66.1626   92.9205   14.0872 N.2     1  UNL1       -0.0873
     29 C          65.7298   93.0932   12.6614 C.2     1  UNL1        0.0974
     30 C          66.2324   94.2580   11.8610 C.3     1  UNL1        0.0555
     31 C          68.0833   93.4633   15.7505 C.3     1  UNL1        0.2885
     32 O          67.0980   93.9126   14.7125 O.2     1  UNL1       -0.3734
@<TRIPOS>BOND
     1    31    32    1
     2    32    28    1
     3    28    29    2
     4    29    30    1
     5    29     1    1
     6     1     2   ar
     7     2     3   ar
     8     3     4   ar
     9     4     7    1
    10     7     8   ar
    11     8     9   ar
    12     9    10   ar
    13    10    11   ar
    14     4     5   ar
    15     5    12    1
    16    12    13   am
    17    13    14    2
    18    13    16    1
    19    16    17   ar
    20    17    18   ar
    21    18    19   ar
    22    19    20   ar
    23    20    22    1
    24    22    23   ar
    25    23    24   ar
    26    24    25   ar
    27    25    26   ar
    28    26    27   ar
    29    20    21   ar
    30     5     6   ar
    31     6     1   ar
    32    11     7   ar
    33    21    16   ar
    34    27    22   ar
    35    12    15    1
@<TRIPOS>MOLECULE
*****
 32 35 0 0 0
SMALL
GASTEIGER

@<TRIPOS>ATOM
      1 C          63.7025   90.6902   11.9810 C.ar    1  UNL1        0.0180
      2 C          63.1164   91.1461   10.6776 C.ar    1  UNL1        0.0029
      3 C          62.3460   90.1829    9.8240 C.ar    1  UNL1        0.0189
      4 C          62.1615   88.7639   10.2737 C.ar    1  UNL1        0.0789
      5 C          62.7476   88.3080   11.5771 C.ar    1  UNL1        0.0670
      6 C          63.5180   89.2712   12.4307 C.ar    1  UNL1        0.0174
      7 N          61.3911   87.8007    9.4201 N.ar    1  UNL1       -0.2852
      8 C          59.9410   87.9129    9.0529 C.ar    1  UNL1        0.1023
      9 C          59.5891   86.7377    8.1897 C.ar    1  UNL1        0.1196
     10 N          60.8217   85.8992    8.0234 N.ar    1  UNL1       -0.2220
     11 C          61.9353   86.5561    8.7838 C.ar    1  UNL1        0.1829
     12 N          62.5631   86.8889   12.0269 N.am    1  UNL1       -0.2780
     13 C          63.2946   86.3840   13.2351 C.2     1  UNL1        0.2688
     14 O          64.2106   87.2982   13.9936 O.2     1  UNL1       -0.2681
     15 H          61.9619   86.2889   11.5290 H       1  UNL1        0.1553
     16 C          63.1102   84.9650   13.6849 C.ar    1  UNL1        0.1538
     17 C          62.9395   84.6565   15.1429 C.ar    1  UNL1        0.1226
     18 N          62.7551   83.2374   15.5926 N.ar    1  UNL1       -0.2390
     19 C          62.7414   82.1269   14.5844 C.ar    1  UNL1        0.1179
     20 C          62.9121   82.4354   13.1264 C.ar    1  UNL1        0.1005
     21 N          63.0965   83.8544   12.6767 N.ar    1  UNL1       -0.2376
     22 C          62.8985   81.3248   12.1182 C.ar    1  UNL1        0.0192
     23 C          63.2277   81.6107   10.6830 C.ar    1  UNL1        0.0015
     24 C          63.2140   80.5002    9.6748 C.ar    1  UNL1        0.0000
     25 C          62.8711   79.1037   10.1018 C.ar    1  UNL1        0.0000
     26 C          62.5419   78.8179   11.5370 C.ar    1  UNL1        0.0000
     27 C          62.5555   79.9284   12.5452 C.ar    1  UNL1        0.0015
     28 N          64.3718   91.5777   14.3292 N.2     1  UNL1       -0.0873
     29 C          64.4729   91.6534   12.8346 C.2     1  UNL1        0.0974
     30 C          65.3446   92.6923   12.1935 C.3     1  UNL1        0.0555
     31 C          66.5896   92.2853   15.4829 C.3     1  UNL1        0.2885
     32 O          65.1422   92.5409   15.1828 O.2     1  UNL1       -0.3734
@<TRIPOS>BOND
     1    31    32    1
     2    32    28    1
     3    28    29    2
     4    29    30    1
     5    29     1    1
     6     1     2   ar
     7     2     3   ar
     8     3     4   ar
     9     4     7    1
    10     7     8   ar
    11     8     9   ar
    12     9    10   ar
    13    10    11   ar
    14     4     5   ar
    15     5    12    1
    16    12    13   am
    17    13    14    2
    18    13    16    1
    19    16    17   ar
    20    17    18   ar
    21    18    19   ar
    22    19    20   ar
    23    20    22    1
    24    22    23   ar
    25    23    24   ar
    26    24    25   ar
    27    25    26   ar
    28    26    27   ar
    29    20    21   ar
    30     5     6   ar
    31     6     1   ar
    32    11     7   ar
    33    21    16   ar
    34    27    22   ar
    35    12    15    1
@<TRIPOS>MOLECULE
*****
 32 35 0 0 0
SMALL
GASTEIGER

@<TRIPOS>ATOM
      1 C          65.9560   93.1328   12.4347 C.ar    1  UNL1        0.0180
      2 C          66.4099   93.0563   13.8623 C.ar    1  UNL1        0.0029
      3 C          65.8279   92.0223   14.7799 C.ar    1  UNL1        0.0189
      4 C          64.7920   91.0648   14.2700 C.ar    1  UNL1        0.0789
      5 C          64.3381   91.1413   12.8424 C.ar    1  UNL1        0.0670
      6 C          64.9201   92.1753   11.9247 C.ar    1  UNL1        0.0174
      7 N          64.2100   90.0308   15.1877 N.ar    1  UNL1       -0.2852
      8 C          63.4776   90.3007   16.4686 C.ar    1  UNL1        0.1023
      9 C          63.0732   88.9820   17.0581 C.ar    1  UNL1        0.1196
     10 N          63.5557   87.8971   16.1416 N.ar    1  UNL1       -0.2220
     11 C          64.2583   88.5452   14.9856 C.ar    1  UNL1        0.1829
     12 N          63.3021   90.1837   12.3324 N.am    1  UNL1       -0.2780
     13 C          62.6573   90.4169   10.9984 C.2     1  UNL1        0.2688
     14 O          63.0484   91.6077   10.1742 O.2     1  UNL1       -0.2681
     15 H          63.0455   89.4022   12.8733 H       1  UNL1        0.1553
     16 C          61.6214   89.4594   10.4884 C.ar    1  UNL1        0.1538
     17 C          60.1858   89.6230   10.8913 C.ar    1  UNL1        0.1226
     18 N          59.1500   88.6655   10.3813 N.ar    1  UNL1       -0.2390
     19 C          59.5497   87.5444    9.4684 C.ar    1  UNL1        0.1179
     20 C          60.9852   87.3808    9.0655 C.ar    1  UNL1        0.1005
     21 N          62.0211   88.3383    9.5755 N.ar    1  UNL1       -0.2376
     22 C          61.3849   86.2597    8.1526 C.ar    1  UNL1        0.0192
     23 C          60.4097   85.7303    7.1434 C.ar    1  UNL1        0.0015
     24 C          60.8094   84.6092    6.2304 C.ar    1  UNL1        0.0000
     25 C          62.1843   84.0175    6.3267 C.ar    1  UNL1        0.0000
     26 C          63.1596   84.5469    7.3360 C.ar    1  UNL1        0.0000
     27 C          62.7599   85.6680    8.2489 C.ar    1  UNL1        0.0015
     28 N          67.5066   93.7596   10.4465 N.2     1  UNL1       -0.0873
     29 C          66.5379   94.1668   11.5170 C.2     1  UNL1        0.0974
     30 C          66.1513   95.6080   11.6698 C.3     1  UNL1        0.0555
     31 C          67.3606   95.1785    8.2750 C.3     1  UNL1        0.2885
     32 O          68.0885   94.7936    9.5289 O.2     1  UNL1       -0.3734
@<TRIPOS>BOND
     1    31    32    1
     2    32    28    1
     3    28    29    2
     4    29    30    1
     5    29     1    1
     6     1     2   ar
     7     2     3   ar
     8     3     4   ar
     9     4     7    1
    10     7     8   ar
    11     8     9   ar
    12     9    10   ar
    13    10    11   ar
    14     4     5   ar
    15     5    12    1
    16    12    13   am
    17    13    14    2
    18    13    16    1
    19    16    17   ar
    20    17    18   ar
    21    18    19   ar
    22    19    20   ar
    23    20    22    1
    24    22    23   ar
    25    23    24   ar
    26    24    25   ar
    27    25    26   ar
    28    26    27   ar
    29    20    21   ar
    30     5     6   ar
    31     6     1   ar
    32    11     7   ar
    33    21    16   ar
    34    27    22   ar
    35    12    15    1
@<TRIPOS>MOLECULE
*****
 32 35 0 0 0
SMALL
GASTEIGER

@<TRIPOS>ATOM
      1 C          64.2289   89.4476   14.0188 C.ar    1  UNL1        0.0180
      2 C          64.6057   88.3197   14.9330 C.ar    1  UNL1        0.0029
      3 C          64.2528   86.9083   14.5677 C.ar    1  UNL1        0.0189
      4 C          63.5231   86.6248   13.2882 C.ar    1  UNL1        0.0789
      5 C          63.1463   87.7528   12.3740 C.ar    1  UNL1        0.0670
      6 C          63.4993   89.1642   12.7393 C.ar    1  UNL1        0.0174
      7 N          63.1702   85.2135   12.9229 N.ar    1  UNL1       -0.2852
      8 C          63.2123   84.6226   11.5448 C.ar    1  UNL1        0.1023
      9 C          62.7813   83.1891   11.6417 C.ar    1  UNL1        0.1196
     10 N          62.4728   82.8940   13.0797 N.ar    1  UNL1       -0.2220
     11 C          62.7131   84.1452   13.8715 C.ar    1  UNL1        0.1829
     12 N          62.4166   87.4694   11.0944 N.am    1  UNL1       -0.2780
     13 C          61.2300   88.3013   10.7076 C.2     1  UNL1        0.2688
     14 O          60.7730   89.4168   11.6004 O.2     1  UNL1       -0.2681
     15 H          62.7165   86.7373   10.5085 H       1  UNL1        0.1553
     16 C          60.5003   88.0179    9.4280 C.ar    1  UNL1        0.1538
     17 C          60.0402   86.6239    9.1200 C.ar    1  UNL1        0.1226
     18 N          59.3105   86.3405    7.8405 N.ar    1  UNL1       -0.2390
     19 C          59.0409   87.4512    6.8690 C.ar    1  UNL1        0.1179
     20 C          59.5010   88.8452    7.1771 C.ar    1  UNL1        0.1005
     21 N          60.2307   89.1286    8.4566 N.ar    1  UNL1       -0.2376
     22 C          59.2314   89.9559    6.2056 C.ar    1  UNL1        0.0192
     23 C          57.8223   90.3990    5.9452 C.ar    1  UNL1        0.0015
     24 C          57.5527   91.5097    4.9737 C.ar    1  UNL1        0.0000
     25 C          58.6923   92.1772    4.2627 C.ar    1  UNL1        0.0000
     26 C          60.1014   91.7342    4.5231 C.ar    1  UNL1        0.0000
     27 C          60.3710   90.6235    5.4946 C.ar    1  UNL1        0.0015
     28 N          65.2646   91.7442   13.3840 N.2     1  UNL1       -0.0873
     29 C          64.5819   90.8590   14.3841 C.2     1  UNL1        0.0974
     30 C          64.2521   91.3851   15.7495 C.3     1  UNL1        0.0555
     31 C          66.8700   93.4388   14.5247 C.3     1  UNL1        0.2885
     32 O          65.6175   93.1556   13.7493 O.2     1  UNL1       -0.3734
@<TRIPOS>BOND
     1    31    32    1
     2    32    28    1
     3    28    29    2
     4    29    30    1
     5    29     1    1
     6     1     2   ar
     7     2     3   ar
     8     3     4   ar
     9     4     7    1
    10     7     8   ar
    11     8     9   ar
    12     9    10   ar
    13    10    11   ar
    14     4     5   ar
    15     5    12    1
    16    12    13   am
    17    13    14    2
    18    13    16    1
    19    16    17   ar
    20    17    18   ar
    21    18    19   ar
    22    19    20   ar
    23    20    22    1
    24    22    23   ar
    25    23    24   ar
    26    24    25   ar
    27    25    26   ar
    28    26    27   ar
    29    20    21   ar
    30     5     6   ar
    31     6     1   ar
    32    11     7   ar
    33    21    16   ar
    34    27    22   ar
    35    12    15    1
@<TRIPOS>MOLECULE
*****
 32 35 0 0 0
SMALL
GASTEIGER

@<TRIPOS>ATOM
      1 C          63.0275   85.0235   12.8081 C.ar    1  UNL1        0.0180
      2 C          61.7912   84.8759   11.9716 C.ar    1  UNL1        0.0029
      3 C          61.1956   86.0751   11.2954 C.ar    1  UNL1        0.0189
      4 C          61.8363   87.4218   11.4557 C.ar    1  UNL1        0.0789
      5 C          63.0726   87.5694   12.2922 C.ar    1  UNL1        0.0670
      6 C          63.6681   86.3703   12.9684 C.ar    1  UNL1        0.0174
      7 N          61.2407   88.6210   10.7794 N.ar    1  UNL1       -0.2852
      8 C          61.0911   88.8150    9.2996 C.ar    1  UNL1        0.1023
      9 C          60.4481   90.1506    9.0698 C.ar    1  UNL1        0.1196
     10 N          60.2004   90.7821   10.4077 N.ar    1  UNL1       -0.2220
     11 C          60.6902   89.8367   11.4643 C.ar    1  UNL1        0.1829
     12 N          63.7133   88.9162   12.4525 N.am    1  UNL1       -0.2780
     13 C          64.1357   89.3888   13.8120 C.2     1  UNL1        0.2688
     14 O          63.9173   88.5146   15.0112 O.2     1  UNL1       -0.2681
     15 H          63.8566   89.4900   11.6654 H       1  UNL1        0.1553
     16 C          64.7764   90.7356   13.9723 C.ar    1  UNL1        0.1538
     17 C          64.9180   91.3411   15.3373 C.ar    1  UNL1        0.1226
     18 N          65.5588   92.6878   15.4976 N.ar    1  UNL1       -0.2390
     19 C          66.0579   93.4291   14.2928 C.ar    1  UNL1        0.1179
     20 C          65.9163   92.8236   12.9278 C.ar    1  UNL1        0.1005
     21 N          65.2756   91.4769   12.7676 N.ar    1  UNL1       -0.2376
     22 C          66.4154   93.5648   11.7231 C.ar    1  UNL1        0.0192
     23 C          66.2363   95.0511   11.6296 C.ar    1  UNL1        0.0015
     24 C          66.7354   95.7924   10.4248 C.ar    1  UNL1        0.0000
     25 C          67.4137   95.0474    9.3136 C.ar    1  UNL1        0.0000
     26 C          67.5928   93.5611    9.4071 C.ar    1  UNL1        0.0000
     27 C          67.0937   92.8198   10.6119 C.ar    1  UNL1        0.0015
     28 N          62.9015   82.5097   13.4522 N.2     1  UNL1       -0.0873
     29 C          63.6230   83.8244   13.4844 C.2     1  UNL1        0.0974
     30 C          64.9401   83.9398   14.1928 C.3     1  UNL1        0.0555
     31 C          63.0186   79.9341   13.7726 C.3     1  UNL1        0.2885
     32 O          63.4971   81.3106   14.1285 O.2     1  UNL1       -0.3734
@<TRIPOS>BOND
     1    31    32    1
     2    32    28    1
     3    28    29    2
     4    29    30    1
     5    29     1    1
     6     1     2   ar
     7     2     3   ar
     8     3     4   ar
     9     4     7    1
    10     7     8   ar
    11     8     9   ar
    12     9    10   ar
    13    10    11   ar
    14     4     5   ar
    15     5    12    1
    16    12    13   am
    17    13    14    2
    18    13    16    1
    19    16    17   ar
    20    17    18   ar
    21    18    19   ar
    22    19    20   ar
    23    20    22    1
    24    22    23   ar
    25    23    24   ar
    26    24    25   ar
    27    25    26   ar
    28    26    27   ar
    29    20    21   ar
    30     5     6   ar
    31     6     1   ar
    32    11     7   ar
    33    21    16   ar
    34    27    22   ar
    35    12    15    1
@<TRIPOS>MOLECULE
*****
 32 35 0 0 0
SMALL
GASTEIGER

@<TRIPOS>ATOM
      1 C          60.6375   87.7052    9.2398 C.ar    1  UNL1        0.0180
      2 C          60.5508   86.4117    9.9942 C.ar    1  UNL1        0.0029
      3 C          61.4167   86.1860   11.1980 C.ar    1  UNL1        0.0189
      4 C          62.3693   87.2539   11.6475 C.ar    1  UNL1        0.0789
      5 C          62.4560   88.5474   10.8931 C.ar    1  UNL1        0.0670
      6 C          61.5901   88.7731    9.6892 C.ar    1  UNL1        0.0174
      7 N          63.2352   87.0282   12.8513 N.ar    1  UNL1       -0.2852
      8 C          63.6281   85.6960   13.4176 C.ar    1  UNL1        0.1023
      9 C          64.4960   85.9396   14.6166 C.ar    1  UNL1        0.1196
     10 N          64.6395   87.4224   14.7913 N.ar    1  UNL1       -0.2220
     11 C          63.8604   88.0952   13.7003 C.ar    1  UNL1        0.1829
     12 N          63.4087   89.6154   11.3425 N.am    1  UNL1       -0.2780
     13 C          63.4707   90.9223   10.6089 C.2     1  UNL1        0.2688
     14 O          62.5801   91.1612    9.4258 O.2     1  UNL1       -0.2681
     15 H          63.9932   89.4586   12.1190 H       1  UNL1        0.1553
     16 C          64.4234   91.9902   11.0583 C.ar    1  UNL1        0.1538
     17 C          64.6075   93.2277   10.2308 C.ar    1  UNL1        0.1226
     18 N          65.5601   94.2956   10.6803 N.ar    1  UNL1       -0.2390
     19 C          66.3286   94.1260   11.9572 C.ar    1  UNL1        0.1179
     20 C          66.1446   92.8886   12.7847 C.ar    1  UNL1        0.1005
     21 N          65.1919   91.8207   12.3353 N.ar    1  UNL1       -0.2376
     22 C          66.9131   92.7190   14.0617 C.ar    1  UNL1        0.0192
     23 C          68.4008   92.5317   14.0224 C.ar    1  UNL1        0.0015
     24 C          69.1694   92.3621   15.2993 C.ar    1  UNL1        0.0000
     25 C          68.4502   92.3799   16.6155 C.ar    1  UNL1        0.0000
     26 C          66.9625   92.5673   16.6548 C.ar    1  UNL1        0.0000
     27 C          66.1940   92.7368   15.3779 C.ar    1  UNL1        0.0015
     28 N          59.7378   89.2786    7.3783 N.2     1  UNL1       -0.0873
     29 C          59.7716   87.9308    8.0359 C.2     1  UNL1        0.0974
     30 C          58.9394   86.8088    7.4897 C.3     1  UNL1        0.0555
     31 C          58.8173   90.8592    5.5332 C.3     1  UNL1        0.2885
     32 O          58.8719   89.5042    6.1744 O.2     1  UNL1       -0.3734
@<TRIPOS>BOND
     1    31    32    1
     2    32    28    1
     3    28    29    2
     4    29    30    1
     5    29     1    1
     6     1     2   ar
     7     2     3   ar
     8     3     4   ar
     9     4     7    1
    10     7     8   ar
    11     8     9   ar
    12     9    10   ar
    13    10    11   ar
    14     4     5   ar
    15     5    12    1
    16    12    13   am
    17    13    14    2
    18    13    16    1
    19    16    17   ar
    20    17    18   ar
    21    18    19   ar
    22    19    20   ar
    23    20    22    1
    24    22    23   ar
    25    23    24   ar
    26    24    25   ar
    27    25    26   ar
    28    26    27   ar
    29    20    21   ar
    30     5     6   ar
    31     6     1   ar
    32    11     7   ar
    33    21    16   ar
    34    27    22   ar
    35    12    15    1
@<TRIPOS>MOLECULE
*****
 32 35 0 0 0
SMALL
GASTEIGER

@<TRIPOS>ATOM
      1 C          62.9338   84.6693   11.6247 C.ar    1  UNL1        0.0180
      2 C          61.8549   84.7223   10.5840 C.ar    1  UNL1        0.0029
      3 C          61.1712   86.0218   10.2780 C.ar    1  UNL1        0.0189
      4 C          61.5662   87.2684   11.0129 C.ar    1  UNL1        0.0789
      5 C          62.6451   87.2153   12.0536 C.ar    1  UNL1        0.0670
      6 C          63.3289   85.9158   12.3595 C.ar    1  UNL1        0.0174
      7 N          60.8824   88.5679   10.7069 N.ar    1  UNL1       -0.2852
      8 C          60.1160   89.4118   11.6818 C.ar    1  UNL1        0.1023
      9 C          59.6049   90.6172   10.9498 C.ar    1  UNL1        0.1196
     10 N          60.0555   90.5183    9.5225 N.ar    1  UNL1       -0.2220
     11 C          60.8450   89.2517    9.3724 C.ar    1  UNL1        0.1829
     12 N          63.0402   88.4619   12.7885 N.am    1  UNL1       -0.2780
     13 C          63.6261   88.3667   14.1660 C.2     1  UNL1        0.2688
     14 O          63.8169   87.0248   14.8087 O.2     1  UNL1       -0.2681
     15 H          62.9150   89.3426   12.3666 H       1  UNL1        0.1553
     16 C          64.0212   89.6133   14.9009 C.ar    1  UNL1        0.1538
     17 C          63.0521   90.2701   15.8386 C.ar    1  UNL1        0.1226
     18 N          63.4473   91.5166   16.5734 N.ar    1  UNL1       -0.2390
     19 C          64.8115   92.1063   16.3705 C.ar    1  UNL1        0.1179
     20 C          65.7806   91.4494   15.4328 C.ar    1  UNL1        0.1005
     21 N          65.3855   90.2029   14.6980 N.ar    1  UNL1       -0.2376
     22 C          67.1449   92.0391   15.2299 C.ar    1  UNL1        0.0192
     23 C          67.9763   91.6189   14.0543 C.ar    1  UNL1        0.0015
     24 C          69.3405   92.2085   13.8514 C.ar    1  UNL1        0.0000
     25 C          69.8733   93.2184   14.8241 C.ar    1  UNL1        0.0000
     26 C          69.0419   93.6385   15.9997 C.ar    1  UNL1        0.0000
     27 C          67.6777   93.0489   16.2026 C.ar    1  UNL1        0.0015
     28 N          63.3409   82.6630   13.2244 N.2     1  UNL1       -0.0873
     29 C          63.6176   83.3697   11.9307 C.2     1  UNL1        0.0974
     30 C          64.5781   82.7769   10.9428 C.3     1  UNL1        0.0555
     31 C          63.2126   80.1196   13.7393 C.3     1  UNL1        0.2885
     32 O          64.0247   81.3634   13.5304 O.2     1  UNL1       -0.3734
@<TRIPOS>BOND
     1    31    32    1
     2    32    28    1
     3    28    29    2
     4    29    30    1
     5    29     1    1
     6     1     2   ar
     7     2     3   ar
     8     3     4   ar
     9     4     7    1
    10     7     8   ar
    11     8     9   ar
    12     9    10   ar
    13    10    11   ar
    14     4     5   ar
    15     5    12    1
    16    12    13   am
    17    13    14    2
    18    13    16    1
    19    16    17   ar
    20    17    18   ar
    21    18    19   ar
    22    19    20   ar
    23    20    22    1
    24    22    23   ar
    25    23    24   ar
    26    24    25   ar
    27    25    26   ar
    28    26    27   ar
    29    20    21   ar
    30     5     6   ar
    31     6     1   ar
    32    11     7   ar
    33    21    16   ar
    34    27    22   ar
    35    12    15    1
@<TRIPOS>MOLECULE
*****
 32 35 0 0 0
SMALL
GASTEIGER

@<TRIPOS>ATOM
      1 C          61.2839   92.7975    2.3255 C.ar    1  UNL1        0.0180
      2 C          62.7717   92.6484    2.2075 C.ar    1  UNL1        0.0029
      3 C          63.4778   93.1258    0.9733 C.ar    1  UNL1        0.0189
      4 C          62.6961   93.7524   -0.1430 C.ar    1  UNL1        0.0789
      5 C          61.2082   93.9015   -0.0251 C.ar    1  UNL1        0.0670
      6 C          60.5021   93.4241    1.2092 C.ar    1  UNL1        0.0174
      7 N          63.4022   94.2299   -1.3773 N.ar    1  UNL1       -0.2852
      8 C          63.5211   93.4800   -2.6709 C.ar    1  UNL1        0.1023
      9 C          64.3058   94.3277   -3.6278 C.ar    1  UNL1        0.1196
     10 N          64.6717   95.6017   -2.9256 N.ar    1  UNL1       -0.2220
     11 C          64.1133   95.5412   -1.5347 C.ar    1  UNL1        0.1829
     12 N          60.4263   94.5282   -1.1414 N.am    1  UNL1       -0.2780
     13 C          59.3322   93.7556   -1.8166 C.2     1  UNL1        0.2688
     14 O          59.0199   92.3563   -1.3755 O.2     1  UNL1       -0.2681
     15 H          60.6313   95.4465   -1.4309 H       1  UNL1        0.1553
     16 C          58.5504   94.3822   -2.9329 C.ar    1  UNL1        0.1538
     17 C          59.2286   94.7158   -4.2285 C.ar    1  UNL1        0.1226
     18 N          58.4468   95.3424   -5.3447 N.ar    1  UNL1       -0.2390
     19 C          56.9867   95.6354   -5.1654 C.ar    1  UNL1        0.1179
     20 C          56.3084   95.3018   -3.8698 C.ar    1  UNL1        0.1005
     21 N          57.0902   94.6752   -2.7536 N.ar    1  UNL1       -0.2376
     22 C          54.8482   95.5948   -3.6904 C.ar    1  UNL1        0.0192
     23 C          54.0070   95.9674   -4.8751 C.ar    1  UNL1        0.0015
     24 C          52.5469   96.2604   -4.6958 C.ar    1  UNL1        0.0000
     25 C          51.9280   96.1808   -3.3318 C.ar    1  UNL1        0.0000
     26 C          52.7692   95.8082   -2.1471 C.ar    1  UNL1        0.0000
     27 C          54.2293   95.5152   -2.3264 C.ar    1  UNL1        0.0015
     28 N          59.2020   92.8249    3.8796 N.2     1  UNL1       -0.0873
     29 C          60.5778   92.3200    3.5598 C.2     1  UNL1        0.0974
     30 C          61.2474   91.3375    4.4743 C.3     1  UNL1        0.0555
     31 C          57.3795   91.3519    5.0015 C.3     1  UNL1        0.2885
     32 O          58.4959   92.3474    5.1138 O.2     1  UNL1       -0.3734
@<TRIPOS>BOND
     1    31    32    1
     2    32    28    1
     3    28    29    2
     4    29    30    1
     5    29     1    1
     6     1     2   ar
     7     2     3   ar
     8     3     4   ar
     9     4     7    1
    10     7     8   ar
    11     8     9   ar
    12     9    10   ar
    13    10    11   ar
    14     4     5   ar
    15     5    12    1
    16    12    13   am
    17    13    14    2
    18    13    16    1
    19    16    17   ar
    20    17    18   ar
    21    18    19   ar
    22    19    20   ar
    23    20    22    1
    24    22    23   ar
    25    23    24   ar
    26    24    25   ar
    27    25    26   ar
    28    26    27   ar
    29    20    21   ar
    30     5     6   ar
    31     6     1   ar
    32    11     7   ar
    33    21    16   ar
    34    27    22   ar
    35    12    15    1
