@<TRIPOS>MOLECULE
*****
 33 35 0 0 0
SMALL
GASTEIGER

@<TRIPOS>ATOM
      1 C          62.1252   86.3542   11.0151 C.ar    1  UNL1        0.2172
      2 N          62.8923   86.8885   12.1880 N.ar    1  UNL1       -0.2091
      3 C          63.1168   88.3650   12.3276 C.ar    1  UNL1        0.1402
      4 C          62.5742   89.3072   11.2942 C.ar    1  UNL1        0.1773
      5 C          61.8071   88.7728   10.1212 C.ar    1  UNL1        0.1402
      6 N          61.5826   87.2963    9.9816 N.ar    1  UNL1       -0.2091
      7 N          61.9007   84.8776   10.8755 N.pl3   1  UNL1       -0.3006
      8 H          61.0318   84.5396   10.5591 H       1  UNL1        0.1497
      9 C          63.3292   83.4055   12.5893 C.3     1  UNL1        0.1219
     10 C          64.4956   82.4703   12.4681 C.3     1  UNL1        0.1634
     11 O          64.8872   82.4029   11.0216 O.3     1  UNL1       -0.3501
     12 C          63.9628   83.2965   10.2490 C.3     1  UNL1        0.1634
     13 C          62.9999   83.9162   11.2179 C.3     1  UNL1        0.1218
     14 C          63.2872   84.6497   14.8697 C.2     1  UNL1        0.2461
     15 O          64.6694   85.1714   14.6106 O.2     1  UNL1       -0.2701
     16 N          62.6170   83.7667   13.8591 N.am    1  UNL1       -0.2985
     17 H          61.7098   83.4243   14.0293 H       1  UNL1        0.1498
     18 C          63.0962   86.1222   17.0016 C.2     1  UNL1        0.0048
     19 C          62.5750   85.0108   16.1396 C.2     1  UNL1        0.0577
     20 O          62.7988   90.7837   11.4338 O.3     1  UNL1       -0.4673
     21 C          63.3674   91.3389   12.7059 C.3     1  UNL1        0.2368
     22 C          64.8289   91.6649   12.7947 C.ar    1  UNL1        0.0821
     23 C          65.5382   92.2579   11.6136 C.ar    1  UNL1        0.1757
     24 F          64.7860   92.5250   10.3435 F       1  UNL1       -0.2011
     25 C          66.9996   92.5839   11.7024 C.ar    1  UNL1        0.1689
     26 C          67.7517   92.3169   12.9725 C.ar    1  UNL1        0.0784
     27 C          67.0424   91.7239   14.1537 C.ar    1  UNL1        0.1689
     28 C          65.5810   91.3979   14.0648 C.ar    1  UNL1        0.1757
     29 F          64.8716   90.8049   15.2460 F       1  UNL1       -0.2011
     30 O          67.7089   93.1770   10.5212 O.3     1  UNL1       -0.4691
     31 C          68.3180   92.2803    9.4844 C.3     1  UNL1        0.2526
     32 O          67.7946   91.4569   15.4237 O.3     1  UNL1       -0.4691
     33 C          68.6831   92.5158   16.0060 C.3     1  UNL1        0.2526
@<TRIPOS>BOND
     1    18    19    2
     2    19    14    1
     3    14    15    2
     4    14    16   am
     5     9    16    1
     6     9    10    1
     7    10    11    1
     8    11    12    1
     9    12    13    1
    10    13     7    1
    11     7     1    1
    12     1     2   ar
    13     2     3   ar
    14     3     4   ar
    15     4    20    1
    16    20    21    1
    17    21    22    1
    18    22    23   ar
    19    23    24    1
    20    23    25   ar
    21    25    30    1
    22    30    31    1
    23    25    26   ar
    24    26    27   ar
    25    27    32    1
    26    32    33    1
    27    27    28   ar
    28    28    29    1
    29     4     5   ar
    30     5     6   ar
    31    13     9    1
    32     6     1   ar
    33    28    22   ar
    34    16    17    1
    35     7     8    1
@<TRIPOS>MOLECULE
*****
 33 35 0 0 0
SMALL
GASTEIGER

@<TRIPOS>ATOM
      1 C          62.0966   86.3009   11.0510 C.ar    1  UNL1        0.2172
      2 N          61.5856   87.2244    9.9851 N.ar    1  UNL1       -0.2091
      3 C          61.8150   88.7022   10.1002 C.ar    1  UNL1        0.1402
      4 C          62.5553   89.2567   11.2811 C.ar    1  UNL1        0.1773
      5 C          63.0662   88.3332   12.3470 C.ar    1  UNL1        0.1402
      6 N          62.8369   86.8554   12.2320 N.ar    1  UNL1       -0.2091
      7 N          61.8672   84.8230   10.9361 N.pl3   1  UNL1       -0.3006
      8 H          61.0009   84.4828   10.6152 H       1  UNL1        0.1497
      9 C          63.2664   83.3753   12.6943 C.3     1  UNL1        0.1219
     10 C          64.4307   82.4337   12.6050 C.3     1  UNL1        0.1634
     11 O          64.8416   82.3400   11.1654 O.3     1  UNL1       -0.3501
     12 C          63.9314   83.2236   10.3651 C.3     1  UNL1        0.1634
     13 C          62.9579   83.8635   11.3099 C.3     1  UNL1        0.1218
     14 C          63.2046   84.6454   14.9599 C.2     1  UNL1        0.2461
     15 O          64.5984   85.1442   14.7184 O.2     1  UNL1       -0.2701
     16 N          62.5386   83.7609   13.9479 N.am    1  UNL1       -0.2985
     17 H          61.6237   83.4336   14.1064 H       1  UNL1        0.1498
     18 C          63.0250   86.1124   17.0966 C.2     1  UNL1        0.0048
     19 C          62.4766   85.0310   16.2135 C.2     1  UNL1        0.0577
     20 O          62.7846   90.7346   11.3960 O.3     1  UNL1       -0.4673
     21 C          63.3327   91.3119   12.6674 C.3     1  UNL1        0.2368
     22 C          64.7884   91.6597   12.7668 C.ar    1  UNL1        0.0821
     23 C          65.5477   91.3571   14.0245 C.ar    1  UNL1        0.1757
     24 F          64.8512   90.7065   15.1829 F       1  UNL1       -0.2011
     25 C          67.0033   91.7049   14.1239 C.ar    1  UNL1        0.1689
     26 C          67.6998   92.3555   12.9656 C.ar    1  UNL1        0.0784
     27 C          66.9406   92.6582   11.7079 C.ar    1  UNL1        0.1689
     28 C          65.4849   92.3103   11.6085 C.ar    1  UNL1        0.1757
     29 F          64.7256   92.6130   10.3507 F       1  UNL1       -0.2011
     30 O          67.7627   91.4022   15.3817 O.3     1  UNL1       -0.4691
     31 C          68.5572   92.4810   16.0561 C.3     1  UNL1        0.2526
     32 O          67.6370   93.3087   10.5495 O.3     1  UNL1       -0.4691
     33 C          68.1461   92.4712    9.4141 C.3     1  UNL1        0.2526
@<TRIPOS>BOND
     1    18    19    2
     2    19    14    1
     3    14    15    2
     4    14    16   am
     5     9    16    1
     6     9    10    1
     7    10    11    1
     8    11    12    1
     9    12    13    1
    10    13     7    1
    11     7     1    1
    12     1     2   ar
    13     2     3   ar
    14     3     4   ar
    15     4    20    1
    16    20    21    1
    17    21    22    1
    18    22    23   ar
    19    23    24    1
    20    23    25   ar
    21    25    30    1
    22    30    31    1
    23    25    26   ar
    24    26    27   ar
    25    27    32    1
    26    32    33    1
    27    27    28   ar
    28    28    29    1
    29     4     5   ar
    30     5     6   ar
    31    13     9    1
    32     6     1   ar
    33    28    22   ar
    34    16    17    1
    35     7     8    1
@<TRIPOS>MOLECULE
*****
 33 35 0 0 0
SMALL
GASTEIGER

@<TRIPOS>ATOM
      1 C          63.1914   84.6751   10.2977 C.ar    1  UNL1        0.2172
      2 N          62.8558   85.4019    9.0293 N.ar    1  UNL1       -0.2091
      3 C          62.2797   86.7856    9.0877 C.ar    1  UNL1        0.1402
      4 C          62.0392   87.4424   10.4146 C.ar    1  UNL1        0.1773
      5 C          62.3747   86.7156   11.6831 C.ar    1  UNL1        0.1402
      6 N          62.9509   85.3319   11.6246 N.ar    1  UNL1       -0.2091
      7 N          63.7676   83.2913   10.2393 N.pl3   1  UNL1       -0.3006
      8 H          64.2842   83.0061    9.4514 H       1  UNL1        0.1497
      9 C          64.0573   82.5247   12.7836 C.3     1  UNL1        0.1219
     10 C          63.6179   81.3393   13.5908 C.3     1  UNL1        0.1634
     11 O          62.8455   80.4241   12.6876 O.3     1  UNL1       -0.3501
     12 C          62.8075   81.0440   11.3222 C.3     1  UNL1        0.1634
     13 C          63.5565   82.3422   11.3815 C.3     1  UNL1        0.1218
     14 C          64.2940   84.5775   14.3585 C.2     1  UNL1        0.2461
     15 O          62.9310   84.3029   14.9212 O.2     1  UNL1       -0.2701
     16 N          64.8572   83.6884   13.2897 N.am    1  UNL1       -0.2985
     17 H          65.7518   83.8686   12.9204 H       1  UNL1        0.1498
     18 C          64.5104   87.1226   14.8330 C.2     1  UNL1        0.0048
     19 C          65.0939   85.7412   14.8645 C.2     1  UNL1        0.0577
     20 O          61.4630   88.8262   10.4730 O.3     1  UNL1       -0.4673
     21 C          61.5403   89.6177   11.7448 C.3     1  UNL1        0.2368
     22 C          62.7720   90.4141   12.0589 C.ar    1  UNL1        0.0821
     23 C          63.3037   90.4515   13.4610 C.ar    1  UNL1        0.1757
     24 F          62.6036   89.6925   14.5490 F       1  UNL1       -0.2011
     25 C          64.5354   91.2478   13.7751 C.ar    1  UNL1        0.1689
     26 C          65.2355   92.0068   12.6870 C.ar    1  UNL1        0.0784
     27 C          64.7038   91.9694   11.2849 C.ar    1  UNL1        0.1689
     28 C          63.4721   91.1731   10.9709 C.ar    1  UNL1        0.1757
     29 F          62.9405   91.1357    9.5687 F       1  UNL1       -0.2011
     30 O          65.0670   91.2852   15.1772 O.3     1  UNL1       -0.4691
     31 C          65.9970   92.3845   15.5976 C.3     1  UNL1        0.2526
     32 O          65.4039   92.7284   10.1969 O.3     1  UNL1       -0.4691
     33 C          66.7515   93.3352   10.4533 C.3     1  UNL1        0.2526
@<TRIPOS>BOND
     1    18    19    2
     2    19    14    1
     3    14    15    2
     4    14    16   am
     5     9    16    1
     6     9    10    1
     7    10    11    1
     8    11    12    1
     9    12    13    1
    10    13     7    1
    11     7     1    1
    12     1     2   ar
    13     2     3   ar
    14     3     4   ar
    15     4    20    1
    16    20    21    1
    17    21    22    1
    18    22    23   ar
    19    23    24    1
    20    23    25   ar
    21    25    30    1
    22    30    31    1
    23    25    26   ar
    24    26    27   ar
    25    27    32    1
    26    32    33    1
    27    27    28   ar
    28    28    29    1
    29     4     5   ar
    30     5     6   ar
    31    13     9    1
    32     6     1   ar
    33    28    22   ar
    34    16    17    1
    35     7     8    1
@<TRIPOS>MOLECULE
*****
 33 35 0 0 0
SMALL
GASTEIGER

@<TRIPOS>ATOM
      1 C          63.1756   84.6708   10.3053 C.ar    1  UNL1        0.2172
      2 N          62.9005   85.4310    9.0418 N.ar    1  UNL1       -0.2091
      3 C          62.3416   86.8213    9.1097 C.ar    1  UNL1        0.1402
      4 C          62.0579   87.4514   10.4410 C.ar    1  UNL1        0.1773
      5 C          62.3329   86.6912   11.7045 C.ar    1  UNL1        0.1402
      6 N          62.8918   85.3009   11.6366 N.ar    1  UNL1       -0.2091
      7 N          63.7345   83.2804   10.2375 N.pl3   1  UNL1       -0.3006
      8 H          64.2279   82.9867    9.4377 H       1  UNL1        0.1497
      9 C          64.0305   82.5467   12.7907 C.3     1  UNL1        0.1219
     10 C          63.6171   81.3585   13.6076 C.3     1  UNL1        0.1634
     11 O          62.8728   80.4151   12.7098 O.3     1  UNL1       -0.3501
     12 C          62.8262   81.0202   11.3380 C.3     1  UNL1        0.1634
     13 C          63.5417   82.3377   11.3881 C.3     1  UNL1        0.1218
     14 C          64.2818   84.5265   14.4542 C.2     1  UNL1        0.2461
     15 O          62.9983   84.1292   15.1210 O.2     1  UNL1       -0.2701
     16 N          64.7979   83.7353   13.2890 N.am    1  UNL1       -0.2985
     17 H          65.6403   83.9961   12.8513 H       1  UNL1        0.1498
     18 C          64.5155   87.0993   14.7304 C.2     1  UNL1        0.0048
     19 C          65.0493   85.7152   14.9524 C.2     1  UNL1        0.0577
     20 O          61.4989   88.8418   10.5089 O.3     1  UNL1       -0.4673
     21 C          61.5852   89.6233   11.7862 C.3     1  UNL1        0.2368
     22 C          62.8099   90.4355   12.0874 C.ar    1  UNL1        0.0821
     23 C          63.4932   91.1970   10.9906 C.ar    1  UNL1        0.1757
     24 F          62.9519   91.1465    9.5926 F       1  UNL1       -0.2011
     25 C          64.7178   92.0091   11.2919 C.ar    1  UNL1        0.1689
     26 C          65.2591   92.0596   12.6899 C.ar    1  UNL1        0.0784
     27 C          64.5758   91.2981   13.7867 C.ar    1  UNL1        0.1689
     28 C          63.3511   90.4860   13.4855 C.ar    1  UNL1        0.1757
     29 F          62.6677   89.7244   14.5823 F       1  UNL1       -0.2011
     30 O          65.4012   92.7708   10.1950 O.3     1  UNL1       -0.4691
     31 C          66.8072   93.2581   10.3837 C.3     1  UNL1        0.2526
     32 O          65.1170   91.3486   15.1847 O.3     1  UNL1       -0.4691
     33 C          66.1643   92.3593   15.5474 C.3     1  UNL1        0.2526
@<TRIPOS>BOND
     1    18    19    2
     2    19    14    1
     3    14    15    2
     4    14    16   am
     5     9    16    1
     6     9    10    1
     7    10    11    1
     8    11    12    1
     9    12    13    1
    10    13     7    1
    11     7     1    1
    12     1     2   ar
    13     2     3   ar
    14     3     4   ar
    15     4    20    1
    16    20    21    1
    17    21    22    1
    18    22    23   ar
    19    23    24    1
    20    23    25   ar
    21    25    30    1
    22    30    31    1
    23    25    26   ar
    24    26    27   ar
    25    27    32    1
    26    32    33    1
    27    27    28   ar
    28    28    29    1
    29     4     5   ar
    30     5     6   ar
    31    13     9    1
    32     6     1   ar
    33    28    22   ar
    34    16    17    1
    35     7     8    1
@<TRIPOS>MOLECULE
*****
 33 35 0 0 0
SMALL
GASTEIGER

@<TRIPOS>ATOM
      1 C          63.5109   88.6286   15.9900 C.ar    1  UNL1        0.2172
      2 N          64.2516   88.0107   14.8413 N.ar    1  UNL1       -0.2091
      3 C          64.2726   86.5198   14.6775 C.ar    1  UNL1        0.1402
      4 C          63.5528   85.6469   15.6624 C.ar    1  UNL1        0.1773
      5 C          62.8121   86.2648   16.8110 C.ar    1  UNL1        0.1402
      6 N          62.7911   87.7557   16.9748 N.ar    1  UNL1       -0.2091
      7 N          63.4899   90.1195   16.1539 N.pl3   1  UNL1       -0.3006
      8 H          62.9923   90.5258   16.8999 H       1  UNL1        0.1497
      9 C          63.9455   91.1075   13.7123 C.3     1  UNL1        0.1219
     10 C          64.9196   92.0881   13.1296 C.3     1  UNL1        0.1634
     11 O          65.8032   92.5781   14.2383 O.3     1  UNL1       -0.3501
     12 C          65.3752   91.9003   15.5061 C.3     1  UNL1        0.1634
     13 C          64.2270   90.9914   15.1810 C.3     1  UNL1        0.1218
     14 C          62.8162   90.4645   11.4626 C.2     1  UNL1        0.2461
     15 O          63.8231   91.2923   10.7205 O.2     1  UNL1       -0.2701
     16 N          62.8773   90.3721   12.9585 N.am    1  UNL1       -0.2985
     17 H          62.2164   89.8288   13.4455 H       1  UNL1        0.1498
     18 C          62.0986   88.5084    9.9105 C.2     1  UNL1        0.0048
     19 C          61.7480   89.7290   10.7088 C.2     1  UNL1        0.0577
     20 O          63.5738   84.1560   15.4985 O.3     1  UNL1       -0.4673
     21 C          62.4783   83.4696   14.7378 C.3     1  UNL1        0.2368
     22 C          62.7626   82.8657   13.3944 C.ar    1  UNL1        0.0821
     23 C          62.6008   81.3891   13.1865 C.ar    1  UNL1        0.1757
     24 F          62.1549   80.5162   14.3220 F       1  UNL1       -0.2011
     25 C          62.8851   80.7853   11.8432 C.ar    1  UNL1        0.1689
     26 C          63.3310   81.6582   10.7078 C.ar    1  UNL1        0.0784
     27 C          63.4928   83.1348   10.9157 C.ar    1  UNL1        0.1689
     28 C          63.2085   83.7386   12.2590 C.ar    1  UNL1        0.1757
     29 F          63.3702   85.2153   12.4670 F       1  UNL1       -0.2011
     30 O          62.7233   79.3085   11.6352 O.3     1  UNL1       -0.4691
     31 C          62.7386   78.7405   10.2470 C.3     1  UNL1        0.2526
     32 O          63.9387   84.0077    9.7802 O.3     1  UNL1       -0.4691
     33 C          62.9742   84.9666    9.1477 C.3     1  UNL1        0.2526
@<TRIPOS>BOND
     1    18    19    2
     2    19    14    1
     3    14    15    2
     4    14    16   am
     5     9    16    1
     6     9    10    1
     7    10    11    1
     8    11    12    1
     9    12    13    1
    10    13     7    1
    11     7     1    1
    12     1     2   ar
    13     2     3   ar
    14     3     4   ar
    15     4    20    1
    16    20    21    1
    17    21    22    1
    18    22    23   ar
    19    23    24    1
    20    23    25   ar
    21    25    30    1
    22    30    31    1
    23    25    26   ar
    24    26    27   ar
    25    27    32    1
    26    32    33    1
    27    27    28   ar
    28    28    29    1
    29     4     5   ar
    30     5     6   ar
    31    13     9    1
    32     6     1   ar
    33    28    22   ar
    34    16    17    1
    35     7     8    1
@<TRIPOS>MOLECULE
*****
 33 35 0 0 0
SMALL
GASTEIGER

@<TRIPOS>ATOM
      1 C          63.8577   91.2505   11.3038 C.ar    1  UNL1        0.2172
      2 N          63.5237   90.5915   12.6092 N.ar    1  UNL1       -0.2091
      3 C          62.3852   89.6182   12.6883 C.ar    1  UNL1        0.1402
      4 C          61.5806   89.3039   11.4620 C.ar    1  UNL1        0.1773
      5 C          61.9146   89.9628   10.1566 C.ar    1  UNL1        0.1402
      6 N          63.0532   90.9361   10.0775 N.ar    1  UNL1       -0.2091
      7 N          64.9964   92.2239   11.2247 N.pl3   1  UNL1       -0.3006
      8 H          65.2769   92.5834   10.3522 H       1  UNL1        0.1497
      9 C          66.2107   94.0300   12.7766 C.3     1  UNL1        0.1219
     10 C          66.8545   94.0030   14.1311 C.3     1  UNL1        0.1634
     11 O          66.7492   92.6057   14.6666 O.3     1  UNL1       -0.3501
     12 C          66.0403   91.7692   13.6430 C.3     1  UNL1        0.1634
     13 C          65.7075   92.6494   12.4749 C.3     1  UNL1        0.1218
     14 C          66.8232   95.2611   10.5723 C.2     1  UNL1        0.2461
     15 O          67.6750   94.0977   10.1592 O.2     1  UNL1       -0.2701
     16 N          66.0910   95.2273   11.8810 N.am    1  UNL1       -0.2985
     17 H          65.5319   95.9909   12.1521 H       1  UNL1        0.1498
     18 C          67.2693   96.4160    8.2882 C.2     1  UNL1        0.0048
     19 C          66.7035   96.4585    9.6767 C.2     1  UNL1        0.0577
     20 O          60.4420   88.3305   11.5411 O.3     1  UNL1       -0.4673
     21 C          60.1674   87.4027   10.3950 C.3     1  UNL1        0.2368
     22 C          61.1958   86.3896    9.9872 C.ar    1  UNL1        0.0821
     23 C          61.9455   85.6190   11.0331 C.ar    1  UNL1        0.1757
     24 F          61.6669   85.8615   12.4870 F       1  UNL1       -0.2011
     25 C          62.9738   84.6060   10.6253 C.ar    1  UNL1        0.1689
     26 C          63.2523   84.3635    9.1715 C.ar    1  UNL1        0.0784
     27 C          62.5026   85.1341    8.1255 C.ar    1  UNL1        0.1689
     28 C          61.4743   86.1471    8.5333 C.ar    1  UNL1        0.1757
     29 F          60.7246   86.9177    7.4873 F       1  UNL1       -0.2011
     30 O          63.7236   83.8354   11.6713 O.3     1  UNL1       -0.4691
     31 C          63.0120   82.8065   12.4990 C.3     1  UNL1        0.2526
     32 O          62.7812   84.8916    6.6717 O.3     1  UNL1       -0.4691
     33 C          61.7436   84.2377    5.8081 C.3     1  UNL1        0.2526
@<TRIPOS>BOND
     1    18    19    2
     2    19    14    1
     3    14    15    2
     4    14    16   am
     5     9    16    1
     6     9    10    1
     7    10    11    1
     8    11    12    1
     9    12    13    1
    10    13     7    1
    11     7     1    1
    12     1     2   ar
    13     2     3   ar
    14     3     4   ar
    15     4    20    1
    16    20    21    1
    17    21    22    1
    18    22    23   ar
    19    23    24    1
    20    23    25   ar
    21    25    30    1
    22    30    31    1
    23    25    26   ar
    24    26    27   ar
    25    27    32    1
    26    32    33    1
    27    27    28   ar
    28    28    29    1
    29     4     5   ar
    30     5     6   ar
    31    13     9    1
    32     6     1   ar
    33    28    22   ar
    34    16    17    1
    35     7     8    1
@<TRIPOS>MOLECULE
*****
 33 35 0 0 0
SMALL
GASTEIGER

@<TRIPOS>ATOM
      1 C          64.1238   85.1354   15.4644 C.ar    1  UNL1        0.2172
      2 N          64.7144   86.1261   14.5054 N.ar    1  UNL1       -0.2091
      3 C          64.4728   87.5936   14.6997 C.ar    1  UNL1        0.1402
      4 C          63.6407   88.0705   15.8530 C.ar    1  UNL1        0.1773
      5 C          63.0501   87.0799   16.8120 C.ar    1  UNL1        0.1402
      6 N          63.2917   85.6123   16.6177 N.ar    1  UNL1       -0.2091
      7 N          64.3654   83.6677   15.2701 N.pl3   1  UNL1       -0.3006
      8 H          64.9736   83.1846   15.8751 H       1  UNL1        0.1497
      9 C          62.8434   83.5575   13.0755 C.3     1  UNL1        0.1219
     10 C          62.3577   82.4602   12.1756 C.3     1  UNL1        0.1634
     11 O          62.8944   81.1605   12.6981 O.3     1  UNL1       -0.3501
     12 C          63.7118   81.4547   13.9209 C.3     1  UNL1        0.1634
     13 C          63.6803   82.9361   14.1542 C.3     1  UNL1        0.1218
     14 C          62.6213   85.6640   11.5710 C.2     1  UNL1        0.2461
     15 O          62.9966   84.8464   10.3708 O.2     1  UNL1       -0.2701
     16 N          62.5447   85.0196   12.9234 N.am    1  UNL1       -0.2985
     17 H          62.2984   85.5562   13.7111 H       1  UNL1        0.1498
     18 C          61.9473   87.6792   10.0762 C.2     1  UNL1        0.0048
     19 C          62.3226   87.1261   11.4190 C.2     1  UNL1        0.0577
     20 O          63.3992   89.5382   16.0473 O.3     1  UNL1       -0.4673
     21 C          63.2882   90.4441   14.8569 C.3     1  UNL1        0.2368
     22 C          64.4610   91.2811   14.4395 C.ar    1  UNL1        0.0821
     23 C          64.7975   91.4284   12.9852 C.ar    1  UNL1        0.1757
     24 F          63.9613   90.7388   11.9483 F       1  UNL1       -0.2011
     25 C          65.9702   92.2653   12.5678 C.ar    1  UNL1        0.1689
     26 C          66.8064   92.9549   13.6047 C.ar    1  UNL1        0.0784
     27 C          66.4699   92.8076   15.0590 C.ar    1  UNL1        0.1689
     28 C          65.2972   91.9707   15.4764 C.ar    1  UNL1        0.1757
     29 F          64.9607   91.8233   16.9308 F       1  UNL1       -0.2011
     30 O          66.3067   92.4127   11.1134 O.3     1  UNL1       -0.4691
     31 C          66.3751   93.7770   10.4939 C.3     1  UNL1        0.2526
     32 O          67.3061   93.4972   16.0959 O.3     1  UNL1       -0.4691
     33 C          68.7662   93.7333   15.8464 C.3     1  UNL1        0.2526
@<TRIPOS>BOND
     1    18    19    2
     2    19    14    1
     3    14    15    2
     4    14    16   am
     5     9    16    1
     6     9    10    1
     7    10    11    1
     8    11    12    1
     9    12    13    1
    10    13     7    1
    11     7     1    1
    12     1     2   ar
    13     2     3   ar
    14     3     4   ar
    15     4    20    1
    16    20    21    1
    17    21    22    1
    18    22    23   ar
    19    23    24    1
    20    23    25   ar
    21    25    30    1
    22    30    31    1
    23    25    26   ar
    24    26    27   ar
    25    27    32    1
    26    32    33    1
    27    27    28   ar
    28    28    29    1
    29     4     5   ar
    30     5     6   ar
    31    13     9    1
    32     6     1   ar
    33    28    22   ar
    34    16    17    1
    35     7     8    1
@<TRIPOS>MOLECULE
*****
 33 35 0 0 0
SMALL
GASTEIGER

@<TRIPOS>ATOM
      1 C          64.3900   90.5692   13.8314 C.ar    1  UNL1        0.2172
      2 N          63.6417   90.3395   12.5519 N.ar    1  UNL1       -0.2091
      3 C          63.2245   88.9514   12.1658 C.ar    1  UNL1        0.1402
      4 C          63.5558   87.7929   13.0593 C.ar    1  UNL1        0.1773
      5 C          64.3041   88.0226   14.3388 C.ar    1  UNL1        0.1402
      6 N          64.7212   89.4107   14.7249 N.ar    1  UNL1       -0.2091
      7 N          64.8072   91.9573   14.2176 N.pl3   1  UNL1       -0.3006
      8 H          64.1715   92.7042   14.1316 H       1  UNL1        0.1497
      9 C          67.4506   92.2162   13.9175 C.3     1  UNL1        0.1219
     10 C          68.5991   92.5070   14.8375 C.3     1  UNL1        0.1634
     11 O          68.0510   92.6781   16.2233 O.3     1  UNL1       -0.3501
     12 C          66.5638   92.4930   16.1597 C.3     1  UNL1        0.1634
     13 C          66.1928   92.2075   14.7347 C.3     1  UNL1        0.1218
     14 C          67.0828   93.0310   11.4781 C.2     1  UNL1        0.2461
     15 O          66.5289   94.3259   11.9941 O.2     1  UNL1       -0.2701
     16 N          67.5437   91.9761   12.4398 N.am    1  UNL1       -0.2985
     17 H          67.9073   91.1262   12.1011 H       1  UNL1        0.1498
     18 C          68.4473   92.2626    9.4051 C.2     1  UNL1        0.0048
     19 C          67.1759   92.7909   10.0003 C.2     1  UNL1        0.0577
     20 O          63.1386   86.4048   12.6731 O.3     1  UNL1       -0.4673
     21 C          63.7476   85.2197   13.3621 C.3     1  UNL1        0.2368
     22 C          63.2608   83.8365   13.0460 C.ar    1  UNL1        0.0821
     23 C          62.3903   83.1058   14.0248 C.ar    1  UNL1        0.1757
     24 F          62.0064   83.7582   15.3198 F       1  UNL1       -0.2011
     25 C          61.9035   81.7226   13.7087 C.ar    1  UNL1        0.1689
     26 C          62.2874   81.0702   12.4137 C.ar    1  UNL1        0.0784
     27 C          63.1579   81.8009   11.4348 C.ar    1  UNL1        0.1689
     28 C          63.6446   83.1840   11.7510 C.ar    1  UNL1        0.1757
     29 F          64.5152   83.9148   10.7721 F       1  UNL1       -0.2011
     30 O          61.0330   80.9918   14.6876 O.3     1  UNL1       -0.4691
     31 C          59.7295   80.4018   14.2372 C.3     1  UNL1        0.2526
     32 O          63.5417   81.1484   10.1399 O.3     1  UNL1       -0.4691
     33 C          63.0737   79.7566    9.8336 C.3     1  UNL1        0.2526
@<TRIPOS>BOND
     1    18    19    2
     2    19    14    1
     3    14    15    2
     4    14    16   am
     5     9    16    1
     6     9    10    1
     7    10    11    1
     8    11    12    1
     9    12    13    1
    10    13     7    1
    11     7     1    1
    12     1     2   ar
    13     2     3   ar
    14     3     4   ar
    15     4    20    1
    16    20    21    1
    17    21    22    1
    18    22    23   ar
    19    23    24    1
    20    23    25   ar
    21    25    30    1
    22    30    31    1
    23    25    26   ar
    24    26    27   ar
    25    27    32    1
    26    32    33    1
    27    27    28   ar
    28    28    29    1
    29     4     5   ar
    30     5     6   ar
    31    13     9    1
    32     6     1   ar
    33    28    22   ar
    34    16    17    1
    35     7     8    1
@<TRIPOS>MOLECULE
*****
 33 35 0 0 0
SMALL
GASTEIGER

@<TRIPOS>ATOM
      1 C          64.1151   85.1315   15.4517 C.ar    1  UNL1        0.2172
      2 N          64.7268   86.0936   14.4770 N.ar    1  UNL1       -0.2091
      3 C          64.5009   87.5678   14.6363 C.ar    1  UNL1        0.1402
      4 C          63.6632   88.0800   15.7703 C.ar    1  UNL1        0.1773
      5 C          63.0515   87.1178   16.7450 C.ar    1  UNL1        0.1402
      6 N          63.2774   85.6436   16.5857 N.ar    1  UNL1       -0.2091
      7 N          64.3411   83.6571   15.2923 N.pl3   1  UNL1       -0.3006
      8 H          64.9213   83.1767   15.9262 H       1  UNL1        0.1497
      9 C          62.8488   83.5224   13.0787 C.3     1  UNL1        0.1219
     10 C          62.3939   82.4176   12.1719 C.3     1  UNL1        0.1634
     11 O          62.9470   81.1271   12.6999 O.3     1  UNL1       -0.3501
     12 C          63.7437   81.4344   13.9331 C.3     1  UNL1        0.1634
     13 C          63.6830   82.9147   14.1673 C.3     1  UNL1        0.1218
     14 C          62.5703   85.6172   11.5675 C.2     1  UNL1        0.2461
     15 O          62.9371   84.7987   10.3653 O.2     1  UNL1       -0.2701
     16 N          62.5262   84.9791   12.9242 N.am    1  UNL1       -0.2985
     17 H          62.2854   85.5164   13.7133 H       1  UNL1        0.1498
     18 C          62.0158   87.6501   10.0476 C.2     1  UNL1        0.0048
     19 C          62.2476   87.0740   11.4130 C.2     1  UNL1        0.0577
     20 O          63.4372   89.5543   15.9296 O.3     1  UNL1       -0.4673
     21 C          63.2910   90.4259   14.7177 C.3     1  UNL1        0.2368
     22 C          64.4349   91.2873   14.2709 C.ar    1  UNL1        0.0821
     23 C          65.3117   91.9564   15.2875 C.ar    1  UNL1        0.1757
     24 F          65.0446   91.7642   16.7510 F       1  UNL1       -0.2011
     25 C          66.4555   92.8177   14.8407 C.ar    1  UNL1        0.1689
     26 C          66.7226   93.0100   13.3772 C.ar    1  UNL1        0.0784
     27 C          65.8458   92.3409   12.3606 C.ar    1  UNL1        0.1689
     28 C          64.7020   91.4796   12.8074 C.ar    1  UNL1        0.1757
     29 F          63.8251   90.8104   11.7908 F       1  UNL1       -0.2011
     30 O          67.3324   93.4868   15.8573 O.3     1  UNL1       -0.4691
     31 C          68.8228   93.4699   15.6896 C.3     1  UNL1        0.2526
     32 O          66.1129   92.5331   10.8971 O.3     1  UNL1       -0.4691
     33 C          67.5027   92.3622   10.3596 C.3     1  UNL1        0.2526
@<TRIPOS>BOND
     1    18    19    2
     2    19    14    1
     3    14    15    2
     4    14    16   am
     5     9    16    1
     6     9    10    1
     7    10    11    1
     8    11    12    1
     9    12    13    1
    10    13     7    1
    11     7     1    1
    12     1     2   ar
    13     2     3   ar
    14     3     4   ar
    15     4    20    1
    16    20    21    1
    17    21    22    1
    18    22    23   ar
    19    23    24    1
    20    23    25   ar
    21    25    30    1
    22    30    31    1
    23    25    26   ar
    24    26    27   ar
    25    27    32    1
    26    32    33    1
    27    27    28   ar
    28    28    29    1
    29     4     5   ar
    30     5     6   ar
    31    13     9    1
    32     6     1   ar
    33    28    22   ar
    34    16    17    1
    35     7     8    1
