@<TRIPOS>MOLECULE
*****
 22 24 0 0 0
SMALL
GASTEIGER

@<TRIPOS>ATOM
      1 N          66.8082   94.0689   12.3086 N.pl3   1  UNL1       -0.3375
      2 C          65.7337   93.0439   12.0966 C.ar    1  UNL1        0.1567
      3 N          65.1442   92.1537   13.1501 N.ar    1  UNL1       -0.2245
      4 C          64.1062   91.2888   12.4985 C.ar    1  UNL1        0.0893
      5 C          63.2017   90.2233   13.0430 C.ar    1  UNL1        0.0202
      6 C          62.2452   89.5136   12.1313 C.ar    1  UNL1        0.0077
      7 C          62.1933   89.8692   10.6750 C.ar    1  UNL1        0.0261
      8 C          63.0978   90.9347   10.1304 C.ar    1  UNL1        0.0142
      9 C          64.0543   91.6445   11.0422 C.ar    1  UNL1        0.0502
     10 S          65.0601   92.7292   10.7938 S.2     1  UNL1       -0.0520
     11 H          67.1903   94.2031   13.2059 H       1  UNL1        0.1442
     12 H          67.1313   94.6074   11.5504 H       1  UNL1        0.1442
     13 S          61.2368   89.1594    9.7632 S.3     1  UNL1       -0.1088
     14 C          60.6924   87.8153   10.1468 C.3     1  UNL1        0.0884
     15 C          61.5844   86.6096   10.1209 C.ar    1  UNL1       -0.0101
     16 C          62.2766   86.2159    8.8497 C.ar    1  UNL1       -0.0025
     17 C          63.1686   85.0102    8.8239 C.ar    1  UNL1        0.0120
     18 C          63.3684   84.1983   10.0692 C.ar    1  UNL1        0.0682
     19 CL         64.2604   82.9926   10.0433 Cl      1  UNL1       -0.0814
     20 C          62.6763   84.5920   11.3404 C.ar    1  UNL1        0.0679
     21 CL         62.8761   83.7800   12.5857 Cl      1  UNL1       -0.0814
     22 C          61.7843   85.7977   11.3662 C.ar    1  UNL1        0.0088
@<TRIPOS>BOND
     1     1     2    1
     2     2     3   ar
     3     3     4   ar
     4     4     5   ar
     5     5     6   ar
     6     6     7   ar
     7     7    13    1
     8    13    14    1
     9    14    15    1
    10    15    16   ar
    11    16    17   ar
    12    17    18   ar
    13    18    19    1
    14    18    20   ar
    15    20    21    1
    16    20    22   ar
    17     7     8   ar
    18     8     9   ar
    19     9    10   ar
    20    10     2   ar
    21     9     4   ar
    22    22    15   ar
    23     1    11    1
    24     1    12    1
@<TRIPOS>MOLECULE
*****
 22 24 0 0 0
SMALL
GASTEIGER

@<TRIPOS>ATOM
      1 N          63.7349   81.6548   14.4514 N.pl3   1  UNL1       -0.3375
      2 C          63.4836   82.5876   13.3040 C.ar    1  UNL1        0.1567
      3 N          63.8944   82.3632   11.8789 N.ar    1  UNL1       -0.2245
      4 C          63.4420   83.5455   11.0743 C.ar    1  UNL1        0.0893
      5 C          63.5696   83.8757    9.6167 C.ar    1  UNL1        0.0202
      6 C          63.0067   85.1612    9.0869 C.ar    1  UNL1        0.0077
      7 C          62.3163   86.1164   10.0147 C.ar    1  UNL1        0.0261
      8 C          62.1888   85.7862   11.4723 C.ar    1  UNL1        0.0142
      9 C          62.7516   84.5008   12.0021 C.ar    1  UNL1        0.0502
     10 S          62.7773   83.9088   13.3801 S.2     1  UNL1       -0.0520
     11 H          64.2098   80.8057   14.3006 H       1  UNL1        0.1442
     12 H          63.4250   81.8916   15.3554 H       1  UNL1        0.1442
     13 S          61.7534   87.4020    9.4849 S.3     1  UNL1       -0.1088
     14 C          61.3227   88.4800   10.4347 C.3     1  UNL1        0.0884
     15 C          62.3252   89.4690   10.9513 C.ar    1  UNL1       -0.0101
     16 C          62.7232   90.6437   10.1077 C.ar    1  UNL1       -0.0025
     17 C          63.7257   91.6327   10.6243 C.ar    1  UNL1        0.0120
     18 C          64.3302   91.4470   11.9845 C.ar    1  UNL1        0.0682
     19 CL         65.3327   92.4360   12.5011 Cl      1  UNL1       -0.0814
     20 C          63.9322   90.2723   12.8281 C.ar    1  UNL1        0.0679
     21 CL         64.5366   90.0866   14.1883 Cl      1  UNL1       -0.0814
     22 C          62.9297   89.2834   12.3115 C.ar    1  UNL1        0.0088
@<TRIPOS>BOND
     1     1     2    1
     2     2     3   ar
     3     3     4   ar
     4     4     5   ar
     5     5     6   ar
     6     6     7   ar
     7     7    13    1
     8    13    14    1
     9    14    15    1
    10    15    16   ar
    11    16    17   ar
    12    17    18   ar
    13    18    19    1
    14    18    20   ar
    15    20    21    1
    16    20    22   ar
    17     7     8   ar
    18     8     9   ar
    19     9    10   ar
    20    10     2   ar
    21     9     4   ar
    22    22    15   ar
    23     1    11    1
    24     1    12    1
@<TRIPOS>MOLECULE
*****
 22 24 0 0 0
SMALL
GASTEIGER

@<TRIPOS>ATOM
      1 N          60.5264   87.5680    8.1511 N.pl3   1  UNL1       -0.3375
      2 C          61.2692   86.6470    9.0731 C.ar    1  UNL1        0.1567
      3 N          62.2860   85.6226    8.6649 N.ar    1  UNL1       -0.2245
      4 C          62.7710   84.9312    9.9047 C.ar    1  UNL1        0.0893
      5 C          63.7728   83.8351   10.1159 C.ar    1  UNL1        0.0202
      6 C          64.0576   83.3361   11.5015 C.ar    1  UNL1        0.0077
      7 C          63.3405   83.9333   12.6759 C.ar    1  UNL1        0.0261
      8 C          62.3386   85.0295   12.4646 C.ar    1  UNL1        0.0142
      9 C          62.0538   85.5284   11.0790 C.ar    1  UNL1        0.0502
     10 S          61.1257   86.5888   10.5650 S.2     1  UNL1       -0.0520
     11 H          60.6902   87.5308    7.1811 H       1  UNL1        0.1442
     12 H          59.8750   88.2097    8.5161 H       1  UNL1        0.1442
     13 S          63.6253   83.4343   14.0615 S.3     1  UNL1       -0.1088
     14 C          64.5390   84.2087   14.9645 C.3     1  UNL1        0.0884
     15 C          64.1542   85.5855   15.4191 C.ar    1  UNL1       -0.0101
     16 C          63.3745   85.7658   16.6877 C.ar    1  UNL1       -0.0025
     17 C          62.9897   87.1425   17.1423 C.ar    1  UNL1        0.0120
     18 C          63.3846   88.3389   16.3281 C.ar    1  UNL1        0.0682
     19 CL         62.9998   89.7156   16.7827 Cl      1  UNL1       -0.0814
     20 C          64.1643   88.1585   15.0594 C.ar    1  UNL1        0.0679
     21 CL         64.5592   89.3549   14.2453 Cl      1  UNL1       -0.0814
     22 C          64.5490   86.7818   14.6049 C.ar    1  UNL1        0.0088
@<TRIPOS>BOND
     1     1     2    1
     2     2     3   ar
     3     3     4   ar
     4     4     5   ar
     5     5     6   ar
     6     6     7   ar
     7     7    13    1
     8    13    14    1
     9    14    15    1
    10    15    16   ar
    11    16    17   ar
    12    17    18   ar
    13    18    19    1
    14    18    20   ar
    15    20    21    1
    16    20    22   ar
    17     7     8   ar
    18     8     9   ar
    19     9    10   ar
    20    10     2   ar
    21     9     4   ar
    22    22    15   ar
    23     1    11    1
    24     1    12    1
@<TRIPOS>MOLECULE
*****
 22 24 0 0 0
SMALL
GASTEIGER

@<TRIPOS>ATOM
      1 N          67.9536   93.3555    8.5503 N.pl3   1  UNL1       -0.3375
      2 C          67.6221   92.9470    9.9550 C.ar    1  UNL1        0.1567
      3 N          68.5863   92.3980   10.9644 N.ar    1  UNL1       -0.2245
      4 C          67.8283   92.1274   12.2302 C.ar    1  UNL1        0.0893
      5 C          68.2576   91.5828   13.5602 C.ar    1  UNL1        0.0202
      6 C          67.2541   91.4199   14.6632 C.ar    1  UNL1        0.0077
      7 C          65.8214   91.8016   14.4360 C.ar    1  UNL1        0.0261
      8 C          65.3921   92.3462   13.1060 C.ar    1  UNL1        0.0142
      9 C          66.3956   92.5091   12.0031 C.ar    1  UNL1        0.0502
     10 S          66.2682   93.0156   10.5969 S.2     1  UNL1       -0.0520
     11 H          68.8768   93.2726    8.2184 H       1  UNL1        0.1442
     12 H          67.2481   93.7065    7.9602 H       1  UNL1        0.1442
     13 S          64.8179   91.6386   15.5390 S.3     1  UNL1       -0.1088
     14 C          63.5978   90.7930   15.3241 C.3     1  UNL1        0.0884
     15 C          63.6769   89.3049   15.4956 C.ar    1  UNL1       -0.0101
     16 C          64.3303   88.4620   14.4408 C.ar    1  UNL1       -0.0025
     17 C          64.4094   86.9740   14.6123 C.ar    1  UNL1        0.0120
     18 C          63.8351   86.3288   15.8386 C.ar    1  UNL1        0.0682
     19 CL         63.9142   84.8407   16.0102 Cl      1  UNL1       -0.0814
     20 C          63.1817   87.1717   16.8935 C.ar    1  UNL1        0.0679
     21 CL         62.6074   86.5265   18.1198 Cl      1  UNL1       -0.0814
     22 C          63.1026   88.6597   16.7219 C.ar    1  UNL1        0.0088
@<TRIPOS>BOND
     1     1     2    1
     2     2     3   ar
     3     3     4   ar
     4     4     5   ar
     5     5     6   ar
     6     6     7   ar
     7     7    13    1
     8    13    14    1
     9    14    15    1
    10    15    16   ar
    11    16    17   ar
    12    17    18   ar
    13    18    19    1
    14    18    20   ar
    15    20    21    1
    16    20    22   ar
    17     7     8   ar
    18     8     9   ar
    19     9    10   ar
    20    10     2   ar
    21     9     4   ar
    22    22    15   ar
    23     1    11    1
    24     1    12    1
@<TRIPOS>MOLECULE
*****
 22 24 0 0 0
SMALL
GASTEIGER

@<TRIPOS>ATOM
      1 N          60.5414   89.8572    8.9900 N.pl3   1  UNL1       -0.3375
      2 C          61.3738   89.4583   10.1724 C.ar    1  UNL1        0.1567
      3 N          62.0202   90.3932   11.1513 N.ar    1  UNL1       -0.2245
      4 C          62.7518   89.5672   12.1674 C.ar    1  UNL1        0.0893
      5 C          63.5698   89.9445   13.3668 C.ar    1  UNL1        0.0202
      6 C          64.1935   88.8764   14.2153 C.ar    1  UNL1        0.0077
      7 C          63.9993   87.4310   13.8644 C.ar    1  UNL1        0.0261
      8 C          63.1814   87.0537   12.6650 C.ar    1  UNL1        0.0142
      9 C          62.5576   88.1218   11.8165 C.ar    1  UNL1        0.0502
     10 S          61.7060   88.0546   10.5836 S.2     1  UNL1       -0.0520
     11 H          60.3787   90.8097    8.8015 H       1  UNL1        0.1442
     12 H          60.1579   89.1665    8.4026 H       1  UNL1        0.1442
     13 S          64.6231   86.3628   14.7130 S.3     1  UNL1       -0.1088
     14 C          63.7750   85.2604   15.2745 C.3     1  UNL1        0.0884
     15 C          63.5277   84.0196   14.4686 C.ar    1  UNL1       -0.0101
     16 C          64.4684   83.6441   13.3622 C.ar    1  UNL1       -0.0025
     17 C          64.2210   82.4034   12.5563 C.ar    1  UNL1        0.0120
     18 C          63.0330   81.5383   12.8568 C.ar    1  UNL1        0.0682
     19 CL         62.7857   80.2976   12.0508 Cl      1  UNL1       -0.0814
     20 C          62.0924   81.9139   13.9631 C.ar    1  UNL1        0.0679
     21 CL         60.9044   81.0488   14.2636 Cl      1  UNL1       -0.0814
     22 C          62.3397   83.1545   14.7690 C.ar    1  UNL1        0.0088
@<TRIPOS>BOND
     1     1     2    1
     2     2     3   ar
     3     3     4   ar
     4     4     5   ar
     5     5     6   ar
     6     6     7   ar
     7     7    13    1
     8    13    14    1
     9    14    15    1
    10    15    16   ar
    11    16    17   ar
    12    17    18   ar
    13    18    19    1
    14    18    20   ar
    15    20    21    1
    16    20    22   ar
    17     7     8   ar
    18     8     9   ar
    19     9    10   ar
    20    10     2   ar
    21     9     4   ar
    22    22    15   ar
    23     1    11    1
    24     1    12    1
@<TRIPOS>MOLECULE
*****
 22 24 0 0 0
SMALL
GASTEIGER

@<TRIPOS>ATOM
      1 N          67.2811   95.3374    9.7760 N.pl3   1  UNL1       -0.3375
      2 C          66.6219   94.3008   10.6367 C.ar    1  UNL1        0.1567
      3 N          66.9585   93.9984   12.0668 N.ar    1  UNL1       -0.2245
      4 C          66.0549   92.8953   12.5324 C.ar    1  UNL1        0.0893
      5 C          65.9315   92.1873   13.8490 C.ar    1  UNL1        0.0202
      6 C          64.9130   91.1000   14.0232 C.ar    1  UNL1        0.0077
      7 C          64.0179   90.7207   12.8809 C.ar    1  UNL1        0.0261
      8 C          64.1413   91.4287   11.5643 C.ar    1  UNL1        0.0142
      9 C          65.1598   92.5160   11.3901 C.ar    1  UNL1        0.0502
     10 S          65.5102   93.3847   10.2185 S.2     1  UNL1       -0.0520
     11 H          68.0063   95.8932   10.1429 H       1  UNL1        0.1442
     12 H          66.9887   95.4620    8.8442 H       1  UNL1        0.1442
     13 S          62.9994   89.6333   13.0551 S.3     1  UNL1       -0.1088
     14 C          62.9815   88.4647   12.1149 C.3     1  UNL1        0.0884
     15 C          62.0178   88.4415   10.9656 C.ar    1  UNL1       -0.0101
     16 C          61.1249   89.6197   10.7115 C.ar    1  UNL1       -0.0025
     17 C          60.1613   89.5964    9.5623 C.ar    1  UNL1        0.0120
     18 C          60.0906   88.3949    8.6670 C.ar    1  UNL1        0.0682
     19 CL         59.1269   88.3716    7.5177 Cl      1  UNL1       -0.0814
     20 C          60.9835   87.2167    8.9211 C.ar    1  UNL1        0.0679
     21 CL         60.9128   86.0152    8.0258 Cl      1  UNL1       -0.0814
     22 C          61.9471   87.2400   10.0703 C.ar    1  UNL1        0.0088
@<TRIPOS>BOND
     1     1     2    1
     2     2     3   ar
     3     3     4   ar
     4     4     5   ar
     5     5     6   ar
     6     6     7   ar
     7     7    13    1
     8    13    14    1
     9    14    15    1
    10    15    16   ar
    11    16    17   ar
    12    17    18   ar
    13    18    19    1
    14    18    20   ar
    15    20    21    1
    16    20    22   ar
    17     7     8   ar
    18     8     9   ar
    19     9    10   ar
    20    10     2   ar
    21     9     4   ar
    22    22    15   ar
    23     1    11    1
    24     1    12    1
@<TRIPOS>MOLECULE
*****
 22 24 0 0 0
SMALL
GASTEIGER

@<TRIPOS>ATOM
      1 N          59.8060   86.1488    7.6059 N.pl3   1  UNL1       -0.3375
      2 C          60.4785   87.0163    8.6282 C.ar    1  UNL1        0.1567
      3 N          60.4403   88.5151    8.6750 N.ar    1  UNL1       -0.2245
      4 C          61.2455   88.9625    9.8589 C.ar    1  UNL1        0.0893
      5 C          61.5600   90.3250   10.4017 C.ar    1  UNL1        0.0202
      6 C          62.4103   90.4652   11.6295 C.ar    1  UNL1        0.0077
      7 C          62.9460   89.2429   12.3143 C.ar    1  UNL1        0.0261
      8 C          62.6315   87.8805   11.7714 C.ar    1  UNL1        0.0142
      9 C          61.7813   87.7403   10.5437 C.ar    1  UNL1        0.0502
     10 S          61.3072   86.5375    9.7831 S.2     1  UNL1       -0.0520
     11 H          59.2807   86.5588    6.8811 H       1  UNL1        0.1442
     12 H          59.8898   85.1693    7.6597 H       1  UNL1        0.1442
     13 S          63.7964   89.3831   13.5421 S.3     1  UNL1       -0.1088
     14 C          63.8276   90.6840   14.2882 C.3     1  UNL1        0.0884
     15 C          65.1404   91.3430   14.5921 C.ar    1  UNL1       -0.0101
     16 C          65.3220   92.0961   15.8766 C.ar    1  UNL1       -0.0025
     17 C          66.6347   92.7551   16.1805 C.ar    1  UNL1        0.0120
     18 C          67.7659   92.6609   15.1999 C.ar    1  UNL1        0.0682
     19 CL         69.0787   93.3199   15.5038 Cl      1  UNL1       -0.0814
     20 C          67.5844   91.9079   13.9154 C.ar    1  UNL1        0.0679
     21 CL         68.7156   91.8137   12.9349 Cl      1  UNL1       -0.0814
     22 C          66.2716   91.2489   13.6116 C.ar    1  UNL1        0.0088
@<TRIPOS>BOND
     1     1     2    1
     2     2     3   ar
     3     3     4   ar
     4     4     5   ar
     5     5     6   ar
     6     6     7   ar
     7     7    13    1
     8    13    14    1
     9    14    15    1
    10    15    16   ar
    11    16    17   ar
    12    17    18   ar
    13    18    19    1
    14    18    20   ar
    15    20    21    1
    16    20    22   ar
    17     7     8   ar
    18     8     9   ar
    19     9    10   ar
    20    10     2   ar
    21     9     4   ar
    22    22    15   ar
    23     1    11    1
    24     1    12    1
@<TRIPOS>MOLECULE
*****
 22 24 0 0 0
SMALL
GASTEIGER

@<TRIPOS>ATOM
      1 N          59.9788   89.5210   10.2037 N.pl3   1  UNL1       -0.3375
      2 C          60.7585   88.2424   10.1172 C.ar    1  UNL1        0.1567
      3 N          61.5150   87.7504    8.9190 N.ar    1  UNL1       -0.2245
      4 C          62.1426   86.4354    9.2750 C.ar    1  UNL1        0.0893
      5 C          63.0021   85.4885    8.4909 C.ar    1  UNL1        0.0202
      6 C          63.4931   84.2210    9.1251 C.ar    1  UNL1        0.0077
      7 C          63.1245   83.9002   10.5433 C.ar    1  UNL1        0.0261
      8 C          62.2650   84.8471   11.3273 C.ar    1  UNL1        0.0142
      9 C          61.7741   86.1146   10.6931 C.ar    1  UNL1        0.0502
     10 S          60.9187   87.2315   11.2137 S.2     1  UNL1       -0.0520
     11 H          59.9324   90.1228    9.4260 H       1  UNL1        0.1442
     12 H          59.5135   89.7582   11.0382 H       1  UNL1        0.1442
     13 S          63.6155   82.6326   11.1774 S.3     1  UNL1       -0.1088
     14 C          64.4609   82.6917   12.4151 C.3     1  UNL1        0.0884
     15 C          64.0240   83.5259   13.5827 C.ar    1  UNL1       -0.0101
     16 C          63.0493   82.9705   14.5784 C.ar    1  UNL1       -0.0025
     17 C          62.6124   83.8047   15.7459 C.ar    1  UNL1        0.0120
     18 C          63.1503   85.1944   15.9178 C.ar    1  UNL1        0.0682
     19 CL         62.7134   86.0286   17.0854 Cl      1  UNL1       -0.0814
     20 C          64.1250   85.7498   14.9221 C.ar    1  UNL1        0.0679
     21 CL         64.6629   87.1395   15.0940 Cl      1  UNL1       -0.0814
     22 C          64.5618   84.9156   13.7546 C.ar    1  UNL1        0.0088
@<TRIPOS>BOND
     1     1     2    1
     2     2     3   ar
     3     3     4   ar
     4     4     5   ar
     5     5     6   ar
     6     6     7   ar
     7     7    13    1
     8    13    14    1
     9    14    15    1
    10    15    16   ar
    11    16    17   ar
    12    17    18   ar
    13    18    19    1
    14    18    20   ar
    15    20    21    1
    16    20    22   ar
    17     7     8   ar
    18     8     9   ar
    19     9    10   ar
    20    10     2   ar
    21     9     4   ar
    22    22    15   ar
    23     1    11    1
    24     1    12    1
@<TRIPOS>MOLECULE
*****
 22 24 0 0 0
SMALL
GASTEIGER

@<TRIPOS>ATOM
      1 N          59.2042   88.7157    7.3182 N.pl3   1  UNL1       -0.3375
      2 C          60.0376   87.8003    8.1652 C.ar    1  UNL1        0.1567
      3 N          61.0927   86.8567    7.6688 N.ar    1  UNL1       -0.2245
      4 C          61.6693   86.1409    8.8542 C.ar    1  UNL1        0.0893
      5 C          62.7404   85.0976    8.9732 C.ar    1  UNL1        0.0202
      6 C          63.1127   84.5554   10.3212 C.ar    1  UNL1        0.0077
      7 C          62.4140   85.0565   11.5503 C.ar    1  UNL1        0.0261
      8 C          61.3429   86.0998   11.4313 C.ar    1  UNL1        0.0142
      9 C          60.9706   86.6421   10.0833 C.ar    1  UNL1        0.0502
     10 S          59.9621   87.6676    9.6574 S.2     1  UNL1       -0.0520
     11 H          59.3279   88.7313    6.3416 H       1  UNL1        0.1442
     12 H          58.5336   89.3010    7.7388 H       1  UNL1        0.1442
     13 S          62.7863   84.5142   12.8984 S.3     1  UNL1       -0.1088
     14 C          63.9587   85.0859   13.6391 C.3     1  UNL1        0.0884
     15 C          63.8109   86.3695   14.4012 C.ar    1  UNL1       -0.0101
     16 C          64.0290   87.6822   13.7089 C.ar    1  UNL1       -0.0025
     17 C          63.8812   88.9656   14.4709 C.ar    1  UNL1        0.0120
     18 C          63.5152   88.9365   15.9253 C.ar    1  UNL1        0.0682
     19 CL         63.3674   90.2201   16.6873 Cl      1  UNL1       -0.0814
     20 C          63.2971   87.6239   16.6176 C.ar    1  UNL1        0.0679
     21 CL         62.9311   87.5947   18.0720 Cl      1  UNL1       -0.0814
     22 C          63.4449   86.3404   15.8556 C.ar    1  UNL1        0.0088
@<TRIPOS>BOND
     1     1     2    1
     2     2     3   ar
     3     3     4   ar
     4     4     5   ar
     5     5     6   ar
     6     6     7   ar
     7     7    13    1
     8    13    14    1
     9    14    15    1
    10    15    16   ar
    11    16    17   ar
    12    17    18   ar
    13    18    19    1
    14    18    20   ar
    15    20    21    1
    16    20    22   ar
    17     7     8   ar
    18     8     9   ar
    19     9    10   ar
    20    10     2   ar
    21     9     4   ar
    22    22    15   ar
    23     1    11    1
    24     1    12    1
