@<TRIPOS>MOLECULE
*****
 37 41 0 0 0
SMALL
GASTEIGER

@<TRIPOS>ATOM
      1 C          60.6192   87.1899    9.1316 C.ar    1  UNL1        0.0503
      2 C          59.7452   86.6727    8.0277 C.ar    1  UNL1        0.0143
      3 C          59.0571   87.6332    7.1035 C.ar    1  UNL1       -0.0029
      4 C          59.2430   89.1108    7.2832 C.ar    1  UNL1       -0.0208
      5 C          60.1170   89.6279    8.3871 C.ar    1  UNL1       -0.0029
      6 C          60.8051   88.6674    9.3113 C.ar    1  UNL1        0.0143
      7 C          62.4645   85.4124    9.5625 C.2     1  UNL1        0.2313
      8 O          62.9335   85.5558    8.1450 O.2     1  UNL1       -0.2744
      9 N          61.3073   86.2295   10.0558 N.am    1  UNL1       -0.2836
     10 H          60.9995   86.1355   10.9862 H       1  UNL1        0.1549
     11 N          62.5874   84.8467   15.8160 N.pl3   1  UNL1       -0.3375
     12 C          62.9439   84.4712   14.4082 C.ar    1  UNL1        0.1560
     13 N          62.4744   85.1662   13.1646 N.ar    1  UNL1       -0.2287
     14 C          63.0729   84.4594   11.9846 C.ar    1  UNL1        0.0712
     15 C          63.9122   83.3276   12.4990 C.ar    1  UNL1        0.0239
     16 S          63.8325   83.3350   13.9968 S.2     1  UNL1       -0.0567
     17 C          64.5107   82.6209   11.3190 C.3     1  UNL1        0.0351
     18 C          64.0412   83.3158   10.0754 C.3     1  UNL1        0.0204
     19 C          63.1526   84.4521   10.4867 C.3     1  UNL1        0.1174
     20 H          61.9933   85.6132   15.9857 H       1  UNL1        0.1442
     21 H          62.9475   84.3266   16.5704 H       1  UNL1        0.1442
     22 C          58.5549   90.0711    6.3590 C.3     1  UNL1        0.0420
     23 C          59.3579   90.8773    5.3815 C.3     1  UNL1        0.0585
     24 C          58.9014   92.1223    4.6804 C.3     1  UNL1        0.0175
     25 C          60.0198   92.5944    3.7992 C.3     1  UNL1        0.0199
     26 C          61.1673   91.6411    3.9556 C.3     1  UNL1        0.0855
     27 N          60.7582   90.5799    4.9336 N.3     1  UNL1       -0.2971
     28 H          61.3874   90.5878    5.7363 H       1  UNL1        0.1233
     29 C          62.4913   91.7330    3.2568 C.3     1  UNL1        0.1470
     30 O          63.6848   91.0150    3.8138 O.3     1  UNL1       -0.3787
     31 H          63.4299   90.5428    4.6218 H       1  UNL1        0.2108
     32 C          62.6220   92.5429    2.0011 C.ar    1  UNL1        0.0055
     33 C          61.6634   92.3288    0.8674 C.ar    1  UNL1       -0.0019
     34 C          61.7940   93.1387   -0.3884 C.ar    1  UNL1       -0.0002
     35 C          62.8832   94.1628   -0.5105 C.ar    1  UNL1       -0.0000
     36 C          63.8418   94.3768    0.6232 C.ar    1  UNL1       -0.0002
     37 C          63.7112   93.5669    1.8789 C.ar    1  UNL1       -0.0019
@<TRIPOS>BOND
     1    11    12    1
     2    12    13   ar
     3    13    14   ar
     4    14    15   ar
     5    15    16   ar
     6    15    17    1
     7    17    18    1
     8    18    19    1
     9    19     7    1
    10     7     8    2
    11     7     9   am
    12     9     1    1
    13     1     2   ar
    14     2     3   ar
    15     3     4   ar
    16     4    22    1
    17    23    22    1
    18    23    24    1
    19    24    25    1
    20    26    25    1
    21    26    29    1
    22    29    30    1
    23    29    32    1
    24    32    33   ar
    25    33    34   ar
    26    34    35   ar
    27    35    36   ar
    28    36    37   ar
    29    26    27    1
    30     4     5   ar
    31     5     6   ar
    32    16    12   ar
    33     6     1   ar
    34    19    14    1
    35    27    23    1
    36    37    32   ar
    37    11    20    1
    38    11    21    1
    39     9    10    1
    40    30    31    1
    41    27    28    1
@<TRIPOS>MOLECULE
*****
 37 41 0 0 0
SMALL
GASTEIGER

@<TRIPOS>ATOM
      1 C          60.5661   87.2251    9.0748 C.ar    1  UNL1        0.0503
      2 C          59.7088   86.7260    7.9498 C.ar    1  UNL1        0.0143
      3 C          59.0562   87.7007    7.0148 C.ar    1  UNL1       -0.0029
      4 C          59.2609   89.1744    7.2049 C.ar    1  UNL1       -0.0208
      5 C          60.1183   89.6735    8.3299 C.ar    1  UNL1       -0.0029
      6 C          60.7709   88.6988    9.2649 C.ar    1  UNL1        0.0143
      7 C          62.4411   85.4975    9.5750 C.2     1  UNL1        0.2313
      8 O          63.0107   85.7192    8.2053 O.2     1  UNL1       -0.2744
      9 N          61.2188   86.2504   10.0098 N.am    1  UNL1       -0.2836
     10 H          60.8449   86.1049   10.9088 H       1  UNL1        0.1549
     11 N          62.3457   84.8514   15.8213 N.pl3   1  UNL1       -0.3375
     12 C          62.7495   84.4927   14.4219 C.ar    1  UNL1        0.1560
     13 N          62.3256   85.2052   13.1718 N.ar    1  UNL1       -0.2287
     14 C          62.9622   84.5114   12.0042 C.ar    1  UNL1        0.0712
     15 C          63.7796   83.3700   12.5326 C.ar    1  UNL1        0.0239
     16 S          63.6481   83.3585   14.0268 S.2     1  UNL1       -0.0567
     17 C          64.4162   82.6762   11.3650 C.3     1  UNL1        0.0351
     18 C          63.9923   83.3887   10.1151 C.3     1  UNL1        0.0204
     19 C          63.0937   84.5229   10.5100 C.3     1  UNL1        0.1174
     20 H          61.7485   85.6179   15.9801 H       1  UNL1        0.1442
     21 H          62.6778   84.3204   16.5809 H       1  UNL1        0.1442
     22 C          58.6083   90.1491    6.2699 C.3     1  UNL1        0.0420
     23 C          59.4422   90.9266    5.2951 C.3     1  UNL1        0.0585
     24 C          60.8942   90.6968    4.9973 C.3     1  UNL1        0.0175
     25 C          61.3198   91.6986    3.9651 C.3     1  UNL1        0.0199
     26 C          60.1308   92.5475    3.6251 C.3     1  UNL1        0.0855
     27 N          58.9703   92.0704    4.4471 N.3     1  UNL1       -0.2971
     28 H          58.2168   91.7590    3.8342 H       1  UNL1        0.1233
     29 C          60.1065   93.6755    2.6366 C.3     1  UNL1        0.1470
     30 O          60.0186   95.0932    3.1185 O.3     1  UNL1       -0.3787
     31 H          59.9857   95.1038    4.0879 H       1  UNL1        0.2108
     32 C          60.1702   93.3857    1.1663 C.ar    1  UNL1        0.0055
     33 C          61.4690   93.5275    0.4295 C.ar    1  UNL1       -0.0019
     34 C          61.5327   93.2377   -1.0409 C.ar    1  UNL1       -0.0002
     35 C          60.2976   92.8061   -1.7745 C.ar    1  UNL1       -0.0000
     36 C          58.9988   92.6643   -1.0377 C.ar    1  UNL1       -0.0002
     37 C          58.9351   92.9541    0.4327 C.ar    1  UNL1       -0.0019
@<TRIPOS>BOND
     1    11    12    1
     2    12    13   ar
     3    13    14   ar
     4    14    15   ar
     5    15    16   ar
     6    15    17    1
     7    17    18    1
     8    18    19    1
     9    19     7    1
    10     7     8    2
    11     7     9   am
    12     9     1    1
    13     1     2   ar
    14     2     3   ar
    15     3     4   ar
    16     4    22    1
    17    23    22    1
    18    23    24    1
    19    24    25    1
    20    26    25    1
    21    26    29    1
    22    29    30    1
    23    29    32    1
    24    32    33   ar
    25    33    34   ar
    26    34    35   ar
    27    35    36   ar
    28    36    37   ar
    29    26    27    1
    30     4     5   ar
    31     5     6   ar
    32    16    12   ar
    33     6     1   ar
    34    19    14    1
    35    27    23    1
    36    37    32   ar
    37    11    20    1
    38    11    21    1
    39     9    10    1
    40    30    31    1
    41    27    28    1
@<TRIPOS>MOLECULE
*****
 37 41 0 0 0
SMALL
GASTEIGER

@<TRIPOS>ATOM
      1 C          60.5963   87.2095    9.1163 C.ar    1  UNL1        0.0503
      2 C          60.7716   88.6868    9.3076 C.ar    1  UNL1        0.0143
      3 C          60.0920   89.6492    8.3791 C.ar    1  UNL1       -0.0029
      4 C          59.2372   89.1342    7.2593 C.ar    1  UNL1       -0.0208
      5 C          59.0619   87.6569    7.0679 C.ar    1  UNL1       -0.0029
      6 C          59.7415   86.6945    7.9964 C.ar    1  UNL1        0.0143
      7 C          62.4372   85.4307    9.5602 C.2     1  UNL1        0.2313
      8 O          62.9191   85.5768    8.1473 O.2     1  UNL1       -0.2744
      9 N          61.2758   86.2471   10.0447 N.am    1  UNL1       -0.2836
     10 H          60.9595   86.1512   10.9721 H       1  UNL1        0.1549
     11 N          62.4812   84.8352   15.8121 N.pl3   1  UNL1       -0.3375
     12 C          62.8573   84.4679   14.4072 C.ar    1  UNL1        0.1560
     13 N          62.4014   85.1671   13.1609 N.ar    1  UNL1       -0.2287
     14 C          63.0176   84.4681   11.9854 C.ar    1  UNL1        0.0712
     15 C          63.8543   83.3369   12.5052 C.ar    1  UNL1        0.0239
     16 S          63.7551   83.3367   14.0019 S.2     1  UNL1       -0.0567
     17 C          64.4704   82.6379   11.3297 C.3     1  UNL1        0.0351
     18 C          64.0146   83.3372   10.0835 C.3     1  UNL1        0.0204
     19 C          63.1167   84.4683   10.4887 C.3     1  UNL1        0.1174
     20 H          61.8822   85.5988   15.9776 H       1  UNL1        0.1442
     21 H          62.8334   84.3128   16.5685 H       1  UNL1        0.1442
     22 C          58.5577   90.0966    6.3308 C.3     1  UNL1        0.0420
     23 C          59.3569   90.8313    5.2957 C.3     1  UNL1        0.0585
     24 C          60.8536   90.8975    5.2207 C.3     1  UNL1        0.0175
     25 C          61.2215   91.7359    4.0325 C.3     1  UNL1        0.0199
     26 C          59.9522   92.1878    3.3732 C.3     1  UNL1        0.0855
     27 N          58.7998   91.6288    4.1539 N.3     1  UNL1       -0.2971
     28 H          58.2351   91.0270    3.5544 H       1  UNL1        0.1233
     29 C          59.8528   93.0478    2.1482 C.3     1  UNL1        0.1470
     30 O          58.8085   92.7581    1.1112 O.3     1  UNL1       -0.3787
     31 H          58.2858   91.9882    1.3849 H       1  UNL1        0.2108
     32 C          60.7977   94.1976    1.9604 C.ar    1  UNL1        0.0055
     33 C          62.2292   93.9397    1.5940 C.ar    1  UNL1       -0.0019
     34 C          63.1741   95.0895    1.4061 C.ar    1  UNL1       -0.0002
     35 C          62.6875   96.4971    1.5846 C.ar    1  UNL1       -0.0000
     36 C          61.2560   96.7549    1.9510 C.ar    1  UNL1       -0.0002
     37 C          60.3111   95.6052    2.1389 C.ar    1  UNL1       -0.0019
@<TRIPOS>BOND
     1    11    12    1
     2    12    13   ar
     3    13    14   ar
     4    14    15   ar
     5    15    16   ar
     6    15    17    1
     7    17    18    1
     8    18    19    1
     9    19     7    1
    10     7     8    2
    11     7     9   am
    12     9     1    1
    13     1     2   ar
    14     2     3   ar
    15     3     4   ar
    16     4    22    1
    17    23    22    1
    18    23    24    1
    19    24    25    1
    20    26    25    1
    21    26    29    1
    22    29    30    1
    23    29    32    1
    24    32    33   ar
    25    33    34   ar
    26    34    35   ar
    27    35    36   ar
    28    36    37   ar
    29    26    27    1
    30     4     5   ar
    31     5     6   ar
    32    16    12   ar
    33     6     1   ar
    34    19    14    1
    35    27    23    1
    36    37    32   ar
    37    11    20    1
    38    11    21    1
    39     9    10    1
    40    30    31    1
    41    27    28    1
@<TRIPOS>MOLECULE
*****
 37 41 0 0 0
SMALL
GASTEIGER

@<TRIPOS>ATOM
      1 C          59.5639   92.3361    4.1575 C.ar    1  UNL1        0.0503
      2 C          58.1902   91.9499    4.6200 C.ar    1  UNL1        0.0143
      3 C          58.0117   90.7883    5.5521 C.ar    1  UNL1       -0.0029
      4 C          59.2068   90.0129    6.0218 C.ar    1  UNL1       -0.0208
      5 C          60.5805   90.3991    5.5594 C.ar    1  UNL1       -0.0029
      6 C          60.7590   91.5607    4.6272 C.ar    1  UNL1        0.0143
      7 C          60.6907   93.3916    2.0680 C.2     1  UNL1        0.2313
      8 O          61.4603   92.1240    1.8427 O.2     1  UNL1       -0.2744
      9 N          59.7425   93.4977    3.2254 N.am    1  UNL1       -0.2836
     10 H          59.2373   94.3297    3.3733 H       1  UNL1        0.1549
     11 N          65.6630   95.6615   -1.0248 N.pl3   1  UNL1       -0.3375
     12 C          64.2246   95.6243   -0.6010 C.ar    1  UNL1        0.1560
     13 N          63.6053   94.6241    0.3296 N.ar    1  UNL1       -0.2287
     14 C          62.1509   94.9623    0.4724 C.ar    1  UNL1        0.0712
     15 C          61.8713   96.1715   -0.3699 C.ar    1  UNL1        0.0239
     16 S          63.1529   96.5806   -1.0333 S.2     1  UNL1       -0.0567
     17 C          60.4169   96.5097   -0.2271 C.3     1  UNL1        0.0351
     18 C          59.7977   95.5095    0.7035 C.3     1  UNL1        0.0204
     19 C          60.8693   94.5532    1.1358 C.3     1  UNL1        0.1174
     20 H          66.2939   94.9864   -0.6851 H       1  UNL1        0.1442
     21 H          65.9761   96.3611   -1.6428 H       1  UNL1        0.1442
     22 C          59.0282   88.8513    6.9540 C.3     1  UNL1        0.0420
     23 C          59.9009   88.7222    8.1671 C.3     1  UNL1        0.0585
     24 C          60.8198   87.5770    8.4743 C.3     1  UNL1        0.0175
     25 C          61.4947   87.8626    9.7831 C.3     1  UNL1        0.0199
     26 C          60.9929   89.1842   10.2848 C.3     1  UNL1        0.0855
     27 N          60.0079   89.7154    9.2861 N.3     1  UNL1       -0.2971
     28 H          60.3321   90.6119    8.9233 H       1  UNL1        0.1233
     29 C          61.4041   89.8564   11.5611 C.3     1  UNL1        0.1470
     30 O          60.5402   89.7404   12.7819 O.3     1  UNL1       -0.3787
     31 H          59.7605   89.2012   12.5762 H       1  UNL1        0.2108
     32 C          62.6790   90.6447   11.6167 C.ar    1  UNL1        0.0055
     33 C          63.2062   91.3064   10.3780 C.ar    1  UNL1       -0.0019
     34 C          64.4812   92.0947   10.4336 C.ar    1  UNL1       -0.0002
     35 C          65.2290   92.2213   11.7277 C.ar    1  UNL1       -0.0000
     36 C          64.7017   91.5596   12.9663 C.ar    1  UNL1       -0.0002
     37 C          63.4268   90.7713   12.9108 C.ar    1  UNL1       -0.0019
@<TRIPOS>BOND
     1    11    12    1
     2    12    13   ar
     3    13    14   ar
     4    14    15   ar
     5    15    16   ar
     6    15    17    1
     7    17    18    1
     8    18    19    1
     9    19     7    1
    10     7     8    2
    11     7     9   am
    12     9     1    1
    13     1     2   ar
    14     2     3   ar
    15     3     4   ar
    16     4    22    1
    17    23    22    1
    18    23    24    1
    19    24    25    1
    20    26    25    1
    21    26    29    1
    22    29    30    1
    23    29    32    1
    24    32    33   ar
    25    33    34   ar
    26    34    35   ar
    27    35    36   ar
    28    36    37   ar
    29    26    27    1
    30     4     5   ar
    31     5     6   ar
    32    16    12   ar
    33     6     1   ar
    34    19    14    1
    35    27    23    1
    36    37    32   ar
    37    11    20    1
    38    11    21    1
    39     9    10    1
    40    30    31    1
    41    27    28    1
@<TRIPOS>MOLECULE
*****
 37 41 0 0 0
SMALL
GASTEIGER

@<TRIPOS>ATOM
      1 C          61.2759   87.0718    9.1645 C.ar    1  UNL1        0.0503
      2 C          61.2745   88.5569    9.3751 C.ar    1  UNL1        0.0143
      3 C          60.3993   89.4335    8.5292 C.ar    1  UNL1       -0.0029
      4 C          59.5255   88.8251    7.4727 C.ar    1  UNL1       -0.0208
      5 C          59.5269   87.3400    7.2620 C.ar    1  UNL1       -0.0029
      6 C          60.4021   86.4634    8.1079 C.ar    1  UNL1        0.0143
      7 C          61.9197   86.1083   11.4898 C.2     1  UNL1        0.2313
      8 O          60.8132   86.8983   12.1235 O.2     1  UNL1       -0.2744
      9 N          62.1511   86.1951   10.0103 N.am    1  UNL1       -0.2836
     10 H          62.8774   85.6766    9.5944 H       1  UNL1        0.1549
     11 N          62.7290   79.8872   11.7797 N.pl3   1  UNL1       -0.3375
     12 C          62.9801   81.3122   12.1749 C.ar    1  UNL1        0.1560
     13 N          62.3173   82.5210   11.5839 N.ar    1  UNL1       -0.2287
     14 C          62.8657   83.7346   12.2743 C.ar    1  UNL1        0.0712
     15 C          63.8674   83.2757   13.2921 C.ar    1  UNL1        0.0239
     16 S          63.9382   81.7787   13.2307 S.2     1  UNL1       -0.0567
     17 C          64.4158   84.4893   13.9825 C.3     1  UNL1        0.0351
     18 C          63.7529   85.6980   13.3914 C.3     1  UNL1        0.0204
     19 C          62.7949   85.2316   12.3357 C.3     1  UNL1        0.1174
     20 H          62.0772   79.6803   11.0715 H       1  UNL1        0.1442
     21 H          63.2161   79.1587   12.2285 H       1  UNL1        0.1442
     22 C          58.6504   89.7018    6.6268 C.3     1  UNL1        0.0420
     23 C          59.2639   90.6068    5.5999 C.3     1  UNL1        0.0585
     24 C          58.5912   91.7722    4.9372 C.3     1  UNL1        0.0175
     25 C          59.5695   92.3910    3.9832 C.3     1  UNL1        0.0199
     26 C          60.8468   91.6080    4.0563 C.3     1  UNL1        0.0855
     27 N          60.6580   90.5053    5.0555 N.3     1  UNL1       -0.2971
     28 H          61.3336   90.6053    5.8131 H       1  UNL1        0.1233
     29 C          62.0940   91.8800    3.2686 C.3     1  UNL1        0.1470
     30 O          63.4154   91.3615    3.7534 O.3     1  UNL1       -0.3787
     31 H          63.2873   90.8757    4.5832 H       1  UNL1        0.2108
     32 C          62.0197   92.6705    1.9959 C.ar    1  UNL1        0.0055
     33 C          61.2497   92.1360    0.8249 C.ar    1  UNL1       -0.0019
     34 C          61.1755   92.9265   -0.4478 C.ar    1  UNL1       -0.0002
     35 C          61.8712   94.2514   -0.5494 C.ar    1  UNL1       -0.0000
     36 C          62.6413   94.7859    0.6216 C.ar    1  UNL1       -0.0002
     37 C          62.7155   93.9954    1.8943 C.ar    1  UNL1       -0.0019
@<TRIPOS>BOND
     1    11    12    1
     2    12    13   ar
     3    13    14   ar
     4    14    15   ar
     5    15    16   ar
     6    15    17    1
     7    17    18    1
     8    18    19    1
     9    19     7    1
    10     7     8    2
    11     7     9   am
    12     9     1    1
    13     1     2   ar
    14     2     3   ar
    15     3     4   ar
    16     4    22    1
    17    23    22    1
    18    23    24    1
    19    24    25    1
    20    26    25    1
    21    26    29    1
    22    29    30    1
    23    29    32    1
    24    32    33   ar
    25    33    34   ar
    26    34    35   ar
    27    35    36   ar
    28    36    37   ar
    29    26    27    1
    30     4     5   ar
    31     5     6   ar
    32    16    12   ar
    33     6     1   ar
    34    19    14    1
    35    27    23    1
    36    37    32   ar
    37    11    20    1
    38    11    21    1
    39     9    10    1
    40    30    31    1
    41    27    28    1
@<TRIPOS>MOLECULE
*****
 37 41 0 0 0
SMALL
GASTEIGER

@<TRIPOS>ATOM
      1 C          63.5743   87.1611   13.7112 C.ar    1  UNL1        0.0503
      2 C          63.8112   87.2623   15.1889 C.ar    1  UNL1        0.0143
      3 C          64.0711   88.5996   15.8169 C.ar    1  UNL1       -0.0029
      4 C          64.0942   89.8355   14.9672 C.ar    1  UNL1       -0.0208
      5 C          63.8573   89.7342   13.4895 C.ar    1  UNL1       -0.0029
      6 C          63.5974   88.3970   12.8615 C.ar    1  UNL1        0.0143
      7 C          64.1834   84.6512   13.4291 C.2     1  UNL1        0.2313
      8 O          65.3123   84.8157   14.4030 O.2     1  UNL1       -0.2744
      9 N          63.3144   85.8239   13.0832 N.am    1  UNL1       -0.2836
     10 H          62.5735   85.7159   12.4440 H       1  UNL1        0.1549
     11 N          59.9434   80.1563   14.5516 N.pl3   1  UNL1       -0.3375
     12 C          61.1082   80.7823   13.8436 C.ar    1  UNL1        0.1560
     13 N          61.7078   82.1232   14.1478 N.ar    1  UNL1       -0.2287
     14 C          62.8481   82.3470   13.1993 C.ar    1  UNL1        0.0712
     15 C          62.9533   81.1444   12.3089 C.ar    1  UNL1        0.0239
     16 S          61.8779   80.1774   12.7072 S.2     1  UNL1       -0.0567
     17 C          64.0936   81.3682   11.3605 C.3     1  UNL1        0.0351
     18 C          64.6931   82.7091   11.6646 C.3     1  UNL1        0.0204
     19 C          63.9235   83.3140   12.8011 C.3     1  UNL1        0.1174
     20 H          59.5013   80.6344   15.2900 H       1  UNL1        0.1442
     21 H          59.6209   79.2673   14.2779 H       1  UNL1        0.1442
     22 C          64.3541   91.1727   15.5952 C.3     1  UNL1        0.0420
     23 C          65.2492   92.1620   14.9097 C.3     1  UNL1        0.0585
     24 C          66.5085   92.7501   15.4738 C.3     1  UNL1        0.0175
     25 C          67.0798   93.6885   14.4524 C.3     1  UNL1        0.0199
     26 C          66.1736   93.6802   13.2571 C.3     1  UNL1        0.0855
     27 N          65.0422   92.7368   13.5397 N.3     1  UNL1       -0.2971
     28 H          65.0350   91.9877   12.8475 H       1  UNL1        0.1233
     29 C          66.3651   94.4758   12.0000 C.3     1  UNL1        0.1470
     30 O          65.8355   95.8763   11.9106 O.3     1  UNL1       -0.3787
     31 H          65.4000   96.1111   12.7450 H       1  UNL1        0.2108
     32 C          67.0863   93.8708   10.8322 C.ar    1  UNL1        0.0055
     33 C          67.3612   94.6968    9.6106 C.ar    1  UNL1       -0.0019
     34 C          68.0824   94.0917    8.4428 C.ar    1  UNL1       -0.0002
     35 C          68.5288   92.6608    8.4964 C.ar    1  UNL1       -0.0000
     36 C          68.2540   91.8348    9.7180 C.ar    1  UNL1       -0.0002
     37 C          67.5327   92.4398   10.8858 C.ar    1  UNL1       -0.0019
@<TRIPOS>BOND
     1    11    12    1
     2    12    13   ar
     3    13    14   ar
     4    14    15   ar
     5    15    16   ar
     6    15    17    1
     7    17    18    1
     8    18    19    1
     9    19     7    1
    10     7     8    2
    11     7     9   am
    12     9     1    1
    13     1     2   ar
    14     2     3   ar
    15     3     4   ar
    16     4    22    1
    17    23    22    1
    18    23    24    1
    19    24    25    1
    20    26    25    1
    21    26    29    1
    22    29    30    1
    23    29    32    1
    24    32    33   ar
    25    33    34   ar
    26    34    35   ar
    27    35    36   ar
    28    36    37   ar
    29    26    27    1
    30     4     5   ar
    31     5     6   ar
    32    16    12   ar
    33     6     1   ar
    34    19    14    1
    35    27    23    1
    36    37    32   ar
    37    11    20    1
    38    11    21    1
    39     9    10    1
    40    30    31    1
    41    27    28    1
@<TRIPOS>MOLECULE
*****
 37 41 0 0 0
SMALL
GASTEIGER

@<TRIPOS>ATOM
      1 C          59.5576   92.4067    4.1609 C.ar    1  UNL1        0.0503
      2 C          58.1852   92.0067    4.6154 C.ar    1  UNL1        0.0143
      3 C          58.0101   90.8225    5.5194 C.ar    1  UNL1       -0.0029
      4 C          59.2072   90.0384    5.9688 C.ar    1  UNL1       -0.0208
      5 C          60.5796   90.4384    5.5143 C.ar    1  UNL1       -0.0029
      6 C          60.7547   91.6226    4.6103 C.ar    1  UNL1        0.0143
      7 C          60.0916   93.3869    1.8148 C.2     1  UNL1        0.2313
      8 O          60.2753   91.9988    1.2767 O.2     1  UNL1       -0.2744
      9 N          59.7328   93.5908    3.2569 N.am    1  UNL1       -0.2836
     10 H          59.6123   94.5018    3.6101 H       1  UNL1        0.1549
     11 N          58.8561   94.3364   -4.2691 N.pl3   1  UNL1       -0.3375
     12 C          59.3394   94.7212   -2.9023 C.ar    1  UNL1        0.1560
     13 N          59.3475   93.8390   -1.6891 N.ar    1  UNL1       -0.2287
     14 C          59.9126   94.6284   -0.5456 C.ar    1  UNL1        0.0712
     15 C          60.2539   95.9984   -1.0520 C.ar    1  UNL1        0.0239
     16 S          59.8996   96.0558   -2.5085 S.2     1  UNL1       -0.0567
     17 C          60.8190   96.7878    0.0914 C.3     1  UNL1        0.0351
     18 C          60.8270   95.9055    1.3045 C.3     1  UNL1        0.0204
     19 C          60.2668   94.5710    0.9108 C.3     1  UNL1        0.1174
     20 H          58.5035   93.4313   -4.4298 H       1  UNL1        0.1442
     21 H          58.8915   94.9888   -5.0055 H       1  UNL1        0.1442
     22 C          59.0320   88.8543    6.8728 C.3     1  UNL1        0.0420
     23 C          59.8778   88.7191    8.1042 C.3     1  UNL1        0.0585
     24 C          60.7615   87.5555    8.4434 C.3     1  UNL1        0.0175
     25 C          61.4183   87.8411    9.7615 C.3     1  UNL1        0.0199
     26 C          60.9405   89.1811   10.2368 C.3     1  UNL1        0.0855
     27 N          59.9884   89.7238    9.2126 N.3     1  UNL1       -0.2971
     28 H          60.3420   90.6071    8.8450 H       1  UNL1        0.1233
     29 C          61.3439   89.8594   11.5124 C.3     1  UNL1        0.1470
     30 O          60.4625   89.7664   12.7225 O.3     1  UNL1       -0.3787
     31 H          59.6782   89.2362   12.5113 H       1  UNL1        0.2108
     32 C          62.6288   90.6306   11.5778 C.ar    1  UNL1        0.0055
     33 C          63.3768   90.7331   12.8740 C.ar    1  UNL1       -0.0019
     34 C          64.6617   91.5043   12.9394 C.ar    1  UNL1       -0.0002
     35 C          65.1986   92.1730   11.7088 C.ar    1  UNL1       -0.0000
     36 C          64.4506   92.0705   10.4127 C.ar    1  UNL1       -0.0002
     37 C          63.1658   91.2993   10.3472 C.ar    1  UNL1       -0.0019
@<TRIPOS>BOND
     1    11    12    1
     2    12    13   ar
     3    13    14   ar
     4    14    15   ar
     5    15    16   ar
     6    15    17    1
     7    17    18    1
     8    18    19    1
     9    19     7    1
    10     7     8    2
    11     7     9   am
    12     9     1    1
    13     1     2   ar
    14     2     3   ar
    15     3     4   ar
    16     4    22    1
    17    23    22    1
    18    23    24    1
    19    24    25    1
    20    26    25    1
    21    26    29    1
    22    29    30    1
    23    29    32    1
    24    32    33   ar
    25    33    34   ar
    26    34    35   ar
    27    35    36   ar
    28    36    37   ar
    29    26    27    1
    30     4     5   ar
    31     5     6   ar
    32    16    12   ar
    33     6     1   ar
    34    19    14    1
    35    27    23    1
    36    37    32   ar
    37    11    20    1
    38    11    21    1
    39     9    10    1
    40    30    31    1
    41    27    28    1
@<TRIPOS>MOLECULE
*****
 37 41 0 0 0
SMALL
GASTEIGER

@<TRIPOS>ATOM
      1 C          61.8880   89.5570   11.6181 C.ar    1  UNL1        0.0503
      2 C          62.3458   88.3367   10.8757 C.ar    1  UNL1        0.0143
      3 C          61.6575   87.9286    9.6069 C.ar    1  UNL1       -0.0029
      4 C          60.5114   88.7407    9.0806 C.ar    1  UNL1       -0.0208
      5 C          60.0537   89.9610    9.8230 C.ar    1  UNL1       -0.0029
      6 C          60.7420   90.3692   11.0918 C.ar    1  UNL1        0.0143
      7 C          63.7455   90.9035   12.8374 C.2     1  UNL1        0.2313
      8 O          64.2266   91.4335   11.5192 O.2     1  UNL1       -0.2744
      9 N          62.5762   89.9652   12.8868 N.am    1  UNL1       -0.2836
     10 H          62.2605   89.6174   13.7520 H       1  UNL1        0.1549
     11 N          69.6939   92.4081   14.1769 N.pl3   1  UNL1       -0.3375
     12 C          68.2454   92.1759   14.4894 C.ar    1  UNL1        0.1560
     13 N          67.1892   91.7533   13.5117 N.ar    1  UNL1       -0.2287
     14 C          65.8897   91.6418   14.2525 C.ar    1  UNL1        0.0712
     15 C          66.1427   91.9955   15.6881 C.ar    1  UNL1        0.0239
     16 S          67.5985   92.3257   15.8345 S.2     1  UNL1       -0.0567
     17 C          64.8431   91.8840   16.4289 C.3     1  UNL1        0.0351
     18 C          63.7870   91.4614   15.4512 C.3     1  UNL1        0.0204
     19 C          64.4338   91.3116   14.1062 C.3     1  UNL1        0.1174
     20 H          70.0255   92.2832   13.2584 H       1  UNL1        0.1442
     21 H          70.3131   92.6854   14.8903 H       1  UNL1        0.1442
     22 C          59.8232   88.3325    7.8118 C.3     1  UNL1        0.0420
     23 C          59.3664   89.3769    6.8369 C.3     1  UNL1        0.0585
     24 C          57.9694   89.5478    6.3181 C.3     1  UNL1        0.0175
     25 C          57.9659   90.7103    5.3702 C.3     1  UNL1        0.0199
     26 C          59.3608   91.2579    5.3031 C.3     1  UNL1        0.0855
     27 N          60.2263   90.4338    6.2096 N.3     1  UNL1       -0.2971
     28 H          60.6309   91.0263    6.9347 H       1  UNL1        0.1233
     29 C          59.8110   92.4247    4.4750 C.3     1  UNL1        0.1470
     30 O          59.0969   93.7396    4.5809 O.3     1  UNL1       -0.3787
     31 H          58.3746   93.6644    5.2239 H       1  UNL1        0.2108
     32 C          60.9754   92.2767    3.5410 C.ar    1  UNL1        0.0055
     33 C          62.0921   91.3336    3.8781 C.ar    1  UNL1       -0.0019
     34 C          63.2564   91.1856    2.9441 C.ar    1  UNL1       -0.0002
     35 C          63.3042   91.9805    1.6730 C.ar    1  UNL1       -0.0000
     36 C          62.1874   92.9236    1.3359 C.ar    1  UNL1       -0.0002
     37 C          61.0231   93.0716    2.2699 C.ar    1  UNL1       -0.0019
@<TRIPOS>BOND
     1    11    12    1
     2    12    13   ar
     3    13    14   ar
     4    14    15   ar
     5    15    16   ar
     6    15    17    1
     7    17    18    1
     8    18    19    1
     9    19     7    1
    10     7     8    2
    11     7     9   am
    12     9     1    1
    13     1     2   ar
    14     2     3   ar
    15     3     4   ar
    16     4    22    1
    17    23    22    1
    18    23    24    1
    19    24    25    1
    20    26    25    1
    21    26    29    1
    22    29    30    1
    23    29    32    1
    24    32    33   ar
    25    33    34   ar
    26    34    35   ar
    27    35    36   ar
    28    36    37   ar
    29    26    27    1
    30     4     5   ar
    31     5     6   ar
    32    16    12   ar
    33     6     1   ar
    34    19    14    1
    35    27    23    1
    36    37    32   ar
    37    11    20    1
    38    11    21    1
    39     9    10    1
    40    30    31    1
    41    27    28    1
@<TRIPOS>MOLECULE
*****
 37 41 0 0 0
SMALL
GASTEIGER

@<TRIPOS>ATOM
      1 C          59.2954   92.0878    4.3370 C.ar    1  UNL1        0.0503
      2 C          57.9100   91.7085    4.7691 C.ar    1  UNL1        0.0143
      3 C          57.7080   90.5716    5.7266 C.ar    1  UNL1       -0.0029
      4 C          58.8912   89.8140    6.2520 C.ar    1  UNL1       -0.0208
      5 C          60.2767   90.1933    5.8198 C.ar    1  UNL1       -0.0029
      6 C          60.4787   91.3302    4.8623 C.ar    1  UNL1        0.0143
      7 C          60.7293   93.2755    2.5250 C.2     1  UNL1        0.2313
      8 O          61.7589   92.1895    2.6279 O.2     1  UNL1       -0.2744
      9 N          59.4976   93.2246    3.3796 N.am    1  UNL1       -0.2836
     10 H          58.8218   93.9374    3.3120 H       1  UNL1        0.1549
     11 N          65.7613   95.4157   -0.5637 N.pl3   1  UNL1       -0.3375
     12 C          64.3180   95.4044   -0.1557 C.ar    1  UNL1        0.1560
     13 N          63.6770   94.4337    0.7914 N.ar    1  UNL1       -0.2287
     14 C          62.2250   94.7912    0.9093 C.ar    1  UNL1        0.0712
     15 C          61.9686   95.9829    0.0352 C.ar    1  UNL1        0.0239
     16 S          63.2621   96.3619   -0.6230 S.2     1  UNL1       -0.0567
     17 C          60.5166   96.3405    0.1531 C.3     1  UNL1        0.0351
     18 C          59.8757   95.3698    1.1001 C.3     1  UNL1        0.0204
     19 C          60.9314   94.4123    1.5675 C.3     1  UNL1        0.1174
     20 H          66.3808   94.7420   -0.2007 H       1  UNL1        0.1442
     21 H          66.0893   96.0967   -1.1945 H       1  UNL1        0.1442
     22 C          58.6891   88.6772    7.2094 C.3     1  UNL1        0.0420
     23 C          59.8627   88.0927    7.9382 C.3     1  UNL1        0.0585
     24 C          60.6209   88.7458    9.0556 C.3     1  UNL1        0.0175
     25 C          61.7109   87.8092    9.4855 C.3     1  UNL1        0.0199
     26 C          61.6262   86.5773    8.6339 C.3     1  UNL1        0.0855
     27 N          60.4840   86.7525    7.6776 N.3     1  UNL1       -0.2971
     28 H          59.7934   86.0164    7.8246 H       1  UNL1        0.1233
     29 C          62.5259   85.3804    8.7229 C.3     1  UNL1        0.1470
     30 O          63.0505   84.7416    7.4712 O.3     1  UNL1       -0.3787
     31 H          62.7148   85.2217    6.6980 H       1  UNL1        0.2108
     32 C          62.9011   84.8223   10.0637 C.ar    1  UNL1        0.0055
     33 C          63.8736   83.6841   10.1568 C.ar    1  UNL1       -0.0019
     34 C          64.2488   83.1260   11.4976 C.ar    1  UNL1       -0.0002
     35 C          63.6515   83.7059   12.7453 C.ar    1  UNL1       -0.0000
     36 C          62.6789   84.8441   12.6522 C.ar    1  UNL1       -0.0002
     37 C          62.3037   85.4023   11.3114 C.ar    1  UNL1       -0.0019
@<TRIPOS>BOND
     1    11    12    1
     2    12    13   ar
     3    13    14   ar
     4    14    15   ar
     5    15    16   ar
     6    15    17    1
     7    17    18    1
     8    18    19    1
     9    19     7    1
    10     7     8    2
    11     7     9   am
    12     9     1    1
    13     1     2   ar
    14     2     3   ar
    15     3     4   ar
    16     4    22    1
    17    23    22    1
    18    23    24    1
    19    24    25    1
    20    26    25    1
    21    26    29    1
    22    29    30    1
    23    29    32    1
    24    32    33   ar
    25    33    34   ar
    26    34    35   ar
    27    35    36   ar
    28    36    37   ar
    29    26    27    1
    30     4     5   ar
    31     5     6   ar
    32    16    12   ar
    33     6     1   ar
    34    19    14    1
    35    27    23    1
    36    37    32   ar
    37    11    20    1
    38    11    21    1
    39     9    10    1
    40    30    31    1
    41    27    28    1
