@<TRIPOS>MOLECULE
*****
 29 31 0 0 0
SMALL
GASTEIGER

@<TRIPOS>ATOM
      1 C          63.8774   89.4545   15.0369 C.2     1  UNL1        0.2309
      2 O          62.5211   89.2867   15.6551 O.2     1  UNL1       -0.2744
      3 N          64.6734   88.2479   14.6359 N.am    1  UNL1       -0.2787
      4 H          65.5636   88.3581   14.2301 H       1  UNL1        0.1553
      5 C          64.1130   86.8736   14.8530 C.ar    1  UNL1        0.0807
      6 C          63.9553   85.8104   13.8069 C.ar    1  UNL1        0.0219
      7 C          63.3568   84.6009   14.4618 C.ar    1  UNL1        0.0084
      8 C          63.1445   84.9167   15.9128 C.ar    1  UNL1        0.0367
      9 S          63.6119   86.3213   16.1545 S.2     1  UNL1       -0.0717
     10 C          63.0281   83.3034   13.7846 C.ar    1  UNL1        0.0059
     11 C          62.2436   82.2539   14.5148 C.ar    1  UNL1        0.0208
     12 C          61.9150   80.9565   13.8377 C.ar    1  UNL1        0.1013
     13 N          62.3709   80.7084   12.4303 N.ar    1  UNL1       -0.2165
     14 C          63.1554   81.7578   11.7001 C.ar    1  UNL1        0.2223
     15 F          63.6112   81.5098   10.2927 F       1  UNL1       -0.1832
     16 C          63.4840   83.0553   12.3772 C.ar    1  UNL1        0.0497
     17 C          64.4378   90.8288   14.8197 C.3     1  UNL1        0.1117
     18 C          65.7491   92.9745   11.7494 C.ar    1  UNL1        0.0641
     19 C          64.8891   92.4405   10.6425 C.ar    1  UNL1        0.0158
     20 C          63.8787   91.3693   10.9280 C.ar    1  UNL1        0.0010
     21 C          63.7283   90.8320   12.3204 C.ar    1  UNL1       -0.0037
     22 C          64.5882   91.3660   13.4273 C.ar    1  UNL1       -0.0118
     23 C          65.5986   92.4373   13.1418 C.ar    1  UNL1        0.0121
     24 N          66.7595   94.0458   11.4640 N.pl3   1  UNL1       -0.2187
     25 H          67.2228   94.4960   12.2069 H       1  UNL1        0.1734
     26 C          67.3684   94.8165    8.6293 C.3     1  UNL1        0.1996
     27 S          67.0640   94.4311   10.0467 S.O2    1  UNL1        0.0558
     28 O          66.0130   95.4993   10.1113 O.2     1  UNL1       -0.1544
     29 O          68.1150   93.3629    9.9821 O.2     1  UNL1       -0.1544
@<TRIPOS>BOND
     1    26    27    1
     2    27    28    2
     3    27    29    2
     4    27    24    1
     5    24    18    1
     6    18    19   ar
     7    19    20   ar
     8    20    21   ar
     9    21    22   ar
    10    22    17    1
    11    17     1    1
    12     1     2    2
    13     1     3   am
    14     3     5    1
    15     5     6   ar
    16     6     7   ar
    17     7    10    1
    18    10    11   ar
    19    11    12   ar
    20    12    13   ar
    21    13    14   ar
    22    14    15    1
    23    14    16   ar
    24     7     8   ar
    25     8     9   ar
    26    22    23   ar
    27    23    18   ar
    28     9     5   ar
    29    16    10   ar
    30    24    25    1
    31     3     4    1
@<TRIPOS>MOLECULE
*****
 29 31 0 0 0
SMALL
GASTEIGER

@<TRIPOS>ATOM
      1 C          63.8402   89.5196   15.0735 C.2     1  UNL1        0.2309
      2 O          62.4598   89.3471   15.6346 O.2     1  UNL1       -0.2744
      3 N          64.6686   88.3153   14.7364 N.am    1  UNL1       -0.2787
      4 H          65.5746   88.4285   14.3681 H       1  UNL1        0.1553
      5 C          64.1167   86.9387   14.9604 C.ar    1  UNL1        0.0807
      6 C          63.9905   85.8603   13.9255 C.ar    1  UNL1        0.0219
      7 C          63.3899   84.6538   14.5842 C.ar    1  UNL1        0.0084
      8 C          63.1449   84.9867   16.0262 C.ar    1  UNL1        0.0367
      9 S          63.5942   86.3988   16.2587 S.2     1  UNL1       -0.0717
     10 C          63.0873   83.3445   13.9178 C.ar    1  UNL1        0.0059
     11 C          63.9150   82.8864   12.7538 C.ar    1  UNL1        0.0208
     12 C          63.6126   81.5771   12.0874 C.ar    1  UNL1        0.1013
     13 N          62.4822   80.7257   12.5851 N.ar    1  UNL1       -0.2165
     14 C          61.6545   81.1838   13.7492 C.ar    1  UNL1        0.2223
     15 F          60.5242   80.3325   14.2469 F       1  UNL1       -0.1832
     16 C          61.9570   82.4932   14.4155 C.ar    1  UNL1        0.0497
     17 C          64.3921   90.8962   14.8495 C.3     1  UNL1        0.1117
     18 C          65.8185   92.9686   11.7802 C.ar    1  UNL1        0.0641
     19 C          64.9777   92.4314   10.6602 C.ar    1  UNL1        0.0158
     20 C          63.9417   91.3825   10.9366 C.ar    1  UNL1        0.0010
     21 C          63.7465   90.8707   12.3330 C.ar    1  UNL1       -0.0037
     22 C          64.5873   91.4079   13.4530 C.ar    1  UNL1       -0.0118
     23 C          65.6233   92.4569   13.1766 C.ar    1  UNL1        0.0121
     24 N          66.8545   94.0175   11.5038 N.pl3   1  UNL1       -0.2187
     25 H          67.5095   94.2576   12.1984 H       1  UNL1        0.1734
     26 C          66.9305   95.3841    8.8341 C.3     1  UNL1        0.1996
     27 S          66.8925   94.7008   10.1690 S.O2    1  UNL1        0.0558
     28 O          68.0690   93.8593    9.7718 O.2     1  UNL1       -0.1544
     29 O          65.7160   95.5422   10.5662 O.2     1  UNL1       -0.1544
@<TRIPOS>BOND
     1    26    27    1
     2    27    28    2
     3    27    29    2
     4    27    24    1
     5    24    18    1
     6    18    19   ar
     7    19    20   ar
     8    20    21   ar
     9    21    22   ar
    10    22    17    1
    11    17     1    1
    12     1     2    2
    13     1     3   am
    14     3     5    1
    15     5     6   ar
    16     6     7   ar
    17     7    10    1
    18    10    11   ar
    19    11    12   ar
    20    12    13   ar
    21    13    14   ar
    22    14    15    1
    23    14    16   ar
    24     7     8   ar
    25     8     9   ar
    26    22    23   ar
    27    23    18   ar
    28     9     5   ar
    29    16    10   ar
    30    24    25    1
    31     3     4    1
@<TRIPOS>MOLECULE
*****
 29 31 0 0 0
SMALL
GASTEIGER

@<TRIPOS>ATOM
      1 C          62.9361   89.3269   12.0215 C.2     1  UNL1        0.2309
      2 O          63.5156   88.5705   13.1799 O.2     1  UNL1       -0.2744
      3 N          62.3572   88.5834   10.8544 N.am    1  UNL1       -0.2787
      4 H          61.9769   89.0798   10.0940 H       1  UNL1        0.1553
      5 C          62.3578   87.0834   10.8457 C.ar    1  UNL1        0.0807
      6 C          62.6705   86.1952   12.0133 C.ar    1  UNL1        0.0219
      7 C          62.5518   84.7711   11.5572 C.ar    1  UNL1        0.0084
      8 C          62.1658   84.7793   10.1077 C.ar    1  UNL1        0.0367
      9 S          62.0459   86.2083    9.6680 S.2     1  UNL1       -0.0717
     10 C          62.7792   83.5528   12.4022 C.ar    1  UNL1        0.0059
     11 C          63.1826   83.7014   13.8393 C.ar    1  UNL1        0.0208
     12 C          63.4100   82.4832   14.6843 C.ar    1  UNL1        0.1013
     13 N          63.2340   81.1162   14.0922 N.ar    1  UNL1       -0.2165
     14 C          62.8305   80.9676   12.6552 C.ar    1  UNL1        0.2223
     15 F          62.6545   79.6007   12.0631 F       1  UNL1       -0.1832
     16 C          62.6032   82.1859   11.8102 C.ar    1  UNL1        0.0497
     17 C          62.9355   90.8269   12.0301 C.3     1  UNL1        0.1117
     18 C          65.9932   93.0592   10.8395 C.ar    1  UNL1        0.0641
     19 C          66.8314   93.0783   12.0832 C.ar    1  UNL1        0.0158
     20 C          66.3711   92.3469   13.3092 C.ar    1  UNL1        0.0010
     21 C          65.0725   91.5964   13.2915 C.ar    1  UNL1       -0.0037
     22 C          64.2342   91.5774   12.0478 C.ar    1  UNL1       -0.0118
     23 C          64.6946   92.3087   10.8218 C.ar    1  UNL1        0.0121
     24 N          66.4535   93.7906    9.6134 N.pl3   1  UNL1       -0.2187
     25 H          66.4805   93.3275    8.7451 H       1  UNL1        0.1734
     26 C          67.2919   96.6645    9.8075 C.3     1  UNL1        0.1996
     27 S          66.8727   95.2275    9.7105 S.O2    1  UNL1        0.0558
     28 O          65.4626   95.6165   10.0425 O.2     1  UNL1       -0.1544
     29 O          68.2828   94.8386    9.3784 O.2     1  UNL1       -0.1544
@<TRIPOS>BOND
     1    26    27    1
     2    27    28    2
     3    27    29    2
     4    27    24    1
     5    24    18    1
     6    18    19   ar
     7    19    20   ar
     8    20    21   ar
     9    21    22   ar
    10    22    17    1
    11    17     1    1
    12     1     2    2
    13     1     3   am
    14     3     5    1
    15     5     6   ar
    16     6     7   ar
    17     7    10    1
    18    10    11   ar
    19    11    12   ar
    20    12    13   ar
    21    13    14   ar
    22    14    15    1
    23    14    16   ar
    24     7     8   ar
    25     8     9   ar
    26    22    23   ar
    27    23    18   ar
    28     9     5   ar
    29    16    10   ar
    30    24    25    1
    31     3     4    1
@<TRIPOS>MOLECULE
*****
 29 31 0 0 0
SMALL
GASTEIGER

@<TRIPOS>ATOM
      1 C          63.7550   90.5603   15.2913 C.2     1  UNL1        0.2309
      2 O          64.5384   91.8343   15.4062 O.2     1  UNL1       -0.2744
      3 N          63.3770   90.0316   13.9394 N.am    1  UNL1       -0.2787
      4 H          62.8628   89.1955   13.8639 H       1  UNL1        0.1553
      5 C          63.7825   90.7769   12.7024 C.ar    1  UNL1        0.0807
      6 C          65.0428   91.5706   12.5246 C.ar    1  UNL1        0.0219
      7 C          65.0380   92.1436   11.1384 C.ar    1  UNL1        0.0084
      8 C          63.7747   91.7041   10.4594 C.ar    1  UNL1        0.0367
      9 S          62.9988   90.8594   11.4261 S.2     1  UNL1       -0.0717
     10 C          66.1086   93.0050   10.5367 C.ar    1  UNL1        0.0059
     11 C          67.3115   92.3726    9.9018 C.ar    1  UNL1        0.0208
     12 C          68.3820   93.2338    9.3002 C.ar    1  UNL1        0.1013
     13 N          68.2498   94.7277    9.3334 N.ar    1  UNL1       -0.2165
     14 C          67.0469   95.3601    9.9683 C.ar    1  UNL1        0.2223
     15 F          66.9146   96.8539   10.0016 F       1  UNL1       -0.1832
     16 C          65.9763   94.4988   10.5700 C.ar    1  UNL1        0.0497
     17 C          63.3496   89.8150   16.5283 C.3     1  UNL1        0.1117
     18 C          63.8849   86.0520   15.3865 C.ar    1  UNL1        0.0641
     19 C          63.1899   85.3179   16.4946 C.ar    1  UNL1        0.0158
     20 C          62.5481   86.0829   17.6140 C.ar    1  UNL1        0.0010
     21 C          62.6014   87.5818   17.6253 C.ar    1  UNL1       -0.0037
     22 C          63.2963   88.3159   16.5171 C.ar    1  UNL1       -0.0118
     23 C          63.9381   87.5510   15.3977 C.ar    1  UNL1        0.0121
     24 N          64.5266   85.2871   14.2671 N.pl3   1  UNL1       -0.2187
     25 H          65.4975   85.3539   14.1185 H       1  UNL1        0.1734
     26 C          62.8515   83.5539   12.4810 C.3     1  UNL1        0.1996
     27 S          63.6891   84.4205   13.3741 S.O2    1  UNL1        0.0558
     28 O          63.1965   85.6398   12.6526 O.2     1  UNL1       -0.1544
     29 O          64.1816   83.2011   14.0955 O.2     1  UNL1       -0.1544
@<TRIPOS>BOND
     1    26    27    1
     2    27    28    2
     3    27    29    2
     4    27    24    1
     5    24    18    1
     6    18    19   ar
     7    19    20   ar
     8    20    21   ar
     9    21    22   ar
    10    22    17    1
    11    17     1    1
    12     1     2    2
    13     1     3   am
    14     3     5    1
    15     5     6   ar
    16     6     7   ar
    17     7    10    1
    18    10    11   ar
    19    11    12   ar
    20    12    13   ar
    21    13    14   ar
    22    14    15    1
    23    14    16   ar
    24     7     8   ar
    25     8     9   ar
    26    22    23   ar
    27    23    18   ar
    28     9     5   ar
    29    16    10   ar
    30    24    25    1
    31     3     4    1
@<TRIPOS>MOLECULE
*****
 29 31 0 0 0
SMALL
GASTEIGER

@<TRIPOS>ATOM
      1 C          62.9798   89.6167   12.3016 C.2     1  UNL1        0.2309
      2 O          63.1297   88.8765   13.5976 O.2     1  UNL1       -0.2744
      3 N          62.6053   88.8745   11.0530 N.am    1  UNL1       -0.2787
      4 H          62.5069   89.3602   10.2023 H       1  UNL1        0.1553
      5 C          62.3806   87.3922   11.1005 C.ar    1  UNL1        0.0807
      6 C          62.9463   86.4469   12.1185 C.ar    1  UNL1        0.0219
      7 C          62.4662   85.0654   11.7855 C.ar    1  UNL1        0.0084
      8 C          61.6036   85.1568   10.5616 C.ar    1  UNL1        0.0367
      9 S          61.5508   86.5949   10.1383 S.2     1  UNL1       -0.0717
     10 C          62.7914   83.8124   12.5433 C.ar    1  UNL1        0.0059
     11 C          63.3221   83.8991   13.9436 C.ar    1  UNL1        0.0208
     12 C          63.6473   82.6463   14.7014 C.ar    1  UNL1        0.1013
     13 N          63.4418   81.3064   14.0589 N.ar    1  UNL1       -0.2165
     14 C          62.9110   81.2196   12.6587 C.ar    1  UNL1        0.2223
     15 F          62.7055   79.8799   12.0162 F       1  UNL1       -0.1832
     16 C          62.5858   82.4726   11.9009 C.ar    1  UNL1        0.0497
     17 C          63.2045   91.0990   12.2540 C.3     1  UNL1        0.1117
     18 C          66.9167   91.9633   13.3598 C.ar    1  UNL1        0.0641
     19 C          67.3945   92.7380   12.1675 C.ar    1  UNL1        0.0158
     20 C          66.4757   92.9663   11.0041 C.ar    1  UNL1        0.0010
     21 C          65.0790   92.4200   11.0329 C.ar    1  UNL1       -0.0037
     22 C          64.6012   91.6453   12.2252 C.ar    1  UNL1       -0.0118
     23 C          65.5200   91.4170   13.3886 C.ar    1  UNL1        0.0121
     24 N          67.8355   91.7350   14.5233 N.pl3   1  UNL1       -0.2187
     25 H          68.0778   90.8178   14.7866 H       1  UNL1        0.1734
     26 C          68.9349   94.0732   16.0478 C.3     1  UNL1        0.1996
     27 S          68.3852   92.9041   15.2855 S.O2    1  UNL1        0.0558
     28 O          67.0988   93.0108   16.0495 O.2     1  UNL1       -0.1544
     29 O          69.6716   92.7973   14.5215 O.2     1  UNL1       -0.1544
@<TRIPOS>BOND
     1    26    27    1
     2    27    28    2
     3    27    29    2
     4    27    24    1
     5    24    18    1
     6    18    19   ar
     7    19    20   ar
     8    20    21   ar
     9    21    22   ar
    10    22    17    1
    11    17     1    1
    12     1     2    2
    13     1     3   am
    14     3     5    1
    15     5     6   ar
    16     6     7   ar
    17     7    10    1
    18    10    11   ar
    19    11    12   ar
    20    12    13   ar
    21    13    14   ar
    22    14    15    1
    23    14    16   ar
    24     7     8   ar
    25     8     9   ar
    26    22    23   ar
    27    23    18   ar
    28     9     5   ar
    29    16    10   ar
    30    24    25    1
    31     3     4    1
@<TRIPOS>MOLECULE
*****
 29 31 0 0 0
SMALL
GASTEIGER

@<TRIPOS>ATOM
      1 C          62.4281   89.2646   11.2123 C.2     1  UNL1        0.2309
      2 O          62.5047   90.2233   10.0611 O.2     1  UNL1       -0.2744
      3 N          63.2456   89.5076   12.4463 N.am    1  UNL1       -0.2787
      4 H          63.1953   88.8784   13.2019 H       1  UNL1        0.1553
      5 C          64.1396   90.7092   12.5292 C.ar    1  UNL1        0.0807
      6 C          64.5017   91.6187   11.3927 C.ar    1  UNL1        0.0219
      7 C          65.4144   92.6839   11.9242 C.ar    1  UNL1        0.0084
      8 C          65.6162   92.4327   13.3892 C.ar    1  UNL1        0.0367
      9 S          64.8284   91.2123   13.7631 S.2     1  UNL1       -0.0717
     10 C          66.0190   93.8037   11.1301 C.ar    1  UNL1        0.0059
     11 C          66.0125   95.2001   11.6777 C.ar    1  UNL1        0.0208
     12 C          66.6170   96.3199   10.8837 C.ar    1  UNL1        0.1013
     13 N          67.2282   96.0432    9.5420 N.ar    1  UNL1       -0.2165
     14 C          67.2347   94.6468    8.9945 C.ar    1  UNL1        0.2223
     15 F          67.8459   94.3701    7.6529 F       1  UNL1       -0.1832
     16 C          66.6301   93.5270    9.7885 C.ar    1  UNL1        0.0497
     17 C          61.5341   88.0630   11.1294 C.3     1  UNL1        0.1117
     18 C          62.8367   84.3172   11.2784 C.ar    1  UNL1        0.0641
     19 C          63.2158   84.0917    9.8448 C.ar    1  UNL1        0.0158
     20 C          63.0343   85.1899    8.8393 C.ar    1  UNL1        0.0010
     21 C          62.4738   86.5137    9.2675 C.ar    1  UNL1       -0.0037
     22 C          62.0947   86.7392   10.7011 C.ar    1  UNL1       -0.0118
     23 C          62.2761   85.6410   11.7066 C.ar    1  UNL1        0.0121
     24 N          63.0181   83.2190   12.2839 N.pl3   1  UNL1       -0.2187
     25 H          62.8315   82.2856   12.0324 H       1  UNL1        0.1734
     26 C          63.9494   83.8666   15.0612 C.3     1  UNL1        0.1996
     27 S          63.4838   83.5428   13.6725 S.O2    1  UNL1        0.0558
     28 O          62.1637   83.0885   14.2211 O.2     1  UNL1       -0.1544
     29 O          64.8038   83.9971   13.1238 O.2     1  UNL1       -0.1544
@<TRIPOS>BOND
     1    26    27    1
     2    27    28    2
     3    27    29    2
     4    27    24    1
     5    24    18    1
     6    18    19   ar
     7    19    20   ar
     8    20    21   ar
     9    21    22   ar
    10    22    17    1
    11    17     1    1
    12     1     2    2
    13     1     3   am
    14     3     5    1
    15     5     6   ar
    16     6     7   ar
    17     7    10    1
    18    10    11   ar
    19    11    12   ar
    20    12    13   ar
    21    13    14   ar
    22    14    15    1
    23    14    16   ar
    24     7     8   ar
    25     8     9   ar
    26    22    23   ar
    27    23    18   ar
    28     9     5   ar
    29    16    10   ar
    30    24    25    1
    31     3     4    1
@<TRIPOS>MOLECULE
*****
 29 31 0 0 0
SMALL
GASTEIGER

@<TRIPOS>ATOM
      1 C          62.2234   86.7443   10.5927 C.2     1  UNL1        0.2309
      2 O          62.4849   87.4640    9.3029 O.2     1  UNL1       -0.2744
      3 N          62.3853   87.4635   11.8991 N.am    1  UNL1       -0.2787
      4 H          62.2137   86.9911   12.7457 H       1  UNL1        0.1553
      5 C          62.8086   88.9024   11.9156 C.ar    1  UNL1        0.0807
      6 C          63.9005   89.4906   12.7593 C.ar    1  UNL1        0.0219
      7 C          63.9811   90.9575   12.4565 C.ar    1  UNL1        0.0084
      8 C          62.9390   91.2759   11.4256 C.ar    1  UNL1        0.0367
      9 S          62.2144   90.0058   11.0914 S.2     1  UNL1       -0.0717
     10 C          64.9361   91.9344   13.0757 C.ar    1  UNL1        0.0059
     11 C          65.5070   93.0503   12.2518 C.ar    1  UNL1        0.0208
     12 C          66.4619   94.0273   12.8709 C.ar    1  UNL1        0.1013
     13 N          66.8462   93.8884   14.3143 N.ar    1  UNL1       -0.2165
     14 C          66.2754   92.7725   15.1383 C.ar    1  UNL1        0.2223
     15 F          66.6596   92.6336   16.5816 F       1  UNL1       -0.1832
     16 C          65.3203   91.7955   14.5190 C.ar    1  UNL1        0.0497
     17 C          61.8001   85.3054   10.5762 C.3     1  UNL1        0.1117
     18 C          63.6161   83.3089   13.4859 C.ar    1  UNL1        0.0641
     19 C          64.2730   82.2080   12.7072 C.ar    1  UNL1        0.0158
     20 C          64.1056   82.1395   11.2181 C.ar    1  UNL1        0.0010
     21 C          63.2813   83.1719   10.5078 C.ar    1  UNL1       -0.0037
     22 C          62.6245   84.2728   11.2865 C.ar    1  UNL1       -0.0118
     23 C          62.7918   84.3413   12.7756 C.ar    1  UNL1        0.0121
     24 N          63.7835   83.3773   14.9750 N.pl3   1  UNL1       -0.2187
     25 H          63.9995   82.5628   15.4840 H       1  UNL1        0.1734
     26 C          63.4600   85.9963   16.4020 C.3     1  UNL1        0.1996
     27 S          63.6217   84.6868   15.6885 S.O2    1  UNL1        0.0558
     28 O          64.9400   85.1478   15.1413 O.2     1  UNL1       -0.1544
     29 O          62.3034   84.2258   16.2357 O.2     1  UNL1       -0.1544
@<TRIPOS>BOND
     1    26    27    1
     2    27    28    2
     3    27    29    2
     4    27    24    1
     5    24    18    1
     6    18    19   ar
     7    19    20   ar
     8    20    21   ar
     9    21    22   ar
    10    22    17    1
    11    17     1    1
    12     1     2    2
    13     1     3   am
    14     3     5    1
    15     5     6   ar
    16     6     7   ar
    17     7    10    1
    18    10    11   ar
    19    11    12   ar
    20    12    13   ar
    21    13    14   ar
    22    14    15    1
    23    14    16   ar
    24     7     8   ar
    25     8     9   ar
    26    22    23   ar
    27    23    18   ar
    28     9     5   ar
    29    16    10   ar
    30    24    25    1
    31     3     4    1
@<TRIPOS>MOLECULE
*****
 29 31 0 0 0
SMALL
GASTEIGER

@<TRIPOS>ATOM
      1 C          62.1427   87.3333   10.7970 C.2     1  UNL1        0.2309
      2 O          62.3014   88.1656    9.5592 O.2     1  UNL1       -0.2744
      3 N          62.5538   87.8853   12.1298 N.am    1  UNL1       -0.2787
      4 H          62.4496   87.3391   12.9422 H       1  UNL1        0.1553
      5 C          63.1236   89.2696   12.2248 C.ar    1  UNL1        0.0807
      6 C          64.2148   89.7120   13.1540 C.ar    1  UNL1        0.0219
      7 C          64.4678   91.1704   12.9108 C.ar    1  UNL1        0.0084
      8 C          63.5329   91.6293   11.8312 C.ar    1  UNL1        0.0367
      9 S          62.7022   90.4545   11.4073 S.2     1  UNL1       -0.0717
     10 C          65.4783   92.0206   13.6222 C.ar    1  UNL1        0.0059
     11 C          65.8618   93.3577   13.0610 C.ar    1  UNL1        0.0208
     12 C          66.8722   94.2079   13.7723 C.ar    1  UNL1        0.1013
     13 N          67.4993   93.7210   15.0450 N.ar    1  UNL1       -0.2165
     14 C          67.1159   92.3838   15.6062 C.ar    1  UNL1        0.2223
     15 F          67.7430   91.8968   16.8789 F       1  UNL1       -0.1832
     16 C          66.1054   91.5336   14.8948 C.ar    1  UNL1        0.0497
     17 C          61.5729   85.9490   10.7020 C.3     1  UNL1        0.1117
     18 C          63.3745   82.7069   12.1138 C.ar    1  UNL1        0.0641
     19 C          64.2914   82.3733   10.9745 C.ar    1  UNL1        0.0158
     20 C          64.3021   83.2315    9.7444 C.ar    1  UNL1        0.0010
     21 C          63.3960   84.4234    9.6535 C.ar    1  UNL1       -0.0037
     22 C          62.4791   84.7570   10.7928 C.ar    1  UNL1       -0.0118
     23 C          62.4684   83.8988   12.0230 C.ar    1  UNL1        0.0121
     24 N          63.3638   81.8486   13.3440 N.pl3   1  UNL1       -0.2187
     25 H          64.1941   81.7095   13.8544 H       1  UNL1        0.1734
     26 C          60.8123   80.5559   14.2489 C.3     1  UNL1        0.1996
     27 S          62.0881   81.2023   13.7964 S.O2    1  UNL1        0.0558
     28 O          62.3261   80.0668   12.8457 O.2     1  UNL1       -0.1544
     29 O          61.8500   82.3378   14.7471 O.2     1  UNL1       -0.1544
@<TRIPOS>BOND
     1    26    27    1
     2    27    28    2
     3    27    29    2
     4    27    24    1
     5    24    18    1
     6    18    19   ar
     7    19    20   ar
     8    20    21   ar
     9    21    22   ar
    10    22    17    1
    11    17     1    1
    12     1     2    2
    13     1     3   am
    14     3     5    1
    15     5     6   ar
    16     6     7   ar
    17     7    10    1
    18    10    11   ar
    19    11    12   ar
    20    12    13   ar
    21    13    14   ar
    22    14    15    1
    23    14    16   ar
    24     7     8   ar
    25     8     9   ar
    26    22    23   ar
    27    23    18   ar
    28     9     5   ar
    29    16    10   ar
    30    24    25    1
    31     3     4    1
@<TRIPOS>MOLECULE
*****
 29 31 0 0 0
SMALL
GASTEIGER

@<TRIPOS>ATOM
      1 C          63.9424   90.8446   16.0244 C.2     1  UNL1        0.2309
      2 O          64.2224   92.2080   16.5835 O.2     1  UNL1       -0.2744
      3 N          64.6163   90.3995   14.7603 N.am    1  UNL1       -0.2787
      4 H          64.4326   89.5046   14.3933 H       1  UNL1        0.1553
      5 C          65.5701   91.3178   14.0554 C.ar    1  UNL1        0.0807
      6 C          65.2589   92.1572   12.8518 C.ar    1  UNL1        0.0219
      7 C          66.4990   92.9162   12.4829 C.ar    1  UNL1        0.0084
      8 C          67.5766   92.5459   13.4585 C.ar    1  UNL1        0.0367
      9 S          67.0025   91.5581   14.4303 S.2     1  UNL1       -0.0717
     10 C          66.6372   93.8768   11.3391 C.ar    1  UNL1        0.0059
     11 C          66.1780   95.2965   11.4924 C.ar    1  UNL1        0.0208
     12 C          66.3162   96.2572   10.3488 C.ar    1  UNL1        0.1013
     13 N          66.9137   95.7981    9.0516 N.ar    1  UNL1       -0.2165
     14 C          67.3730   94.3784    8.8984 C.ar    1  UNL1        0.2223
     15 F          67.9704   93.9193    7.6014 F       1  UNL1       -0.1832
     16 C          67.2347   93.4177   10.0421 C.ar    1  UNL1        0.0497
     17 C          62.9886   89.9262   16.7292 C.3     1  UNL1        0.1117
     18 C          63.9103   86.3600   15.2518 C.ar    1  UNL1        0.0641
     19 C          63.4852   85.4674   16.3797 C.ar    1  UNL1        0.0158
     20 C          62.8945   86.0610   17.6242 C.ar    1  UNL1        0.0010
     21 C          62.7290   87.5472   17.7407 C.ar    1  UNL1       -0.0037
     22 C          63.1541   88.4399   16.6128 C.ar    1  UNL1       -0.0118
     23 C          63.7448   87.8463   15.3683 C.ar    1  UNL1        0.0121
     24 N          64.5010   85.7664   14.0073 N.pl3   1  UNL1       -0.2187
     25 H          65.3839   86.0653   13.6905 H       1  UNL1        0.1734
     26 C          62.9919   83.6685   12.4837 C.3     1  UNL1        0.1996
     27 S          63.7465   84.7175   13.2455 S.O2    1  UNL1        0.0558
     28 O          62.7821   85.7607   12.7642 O.2     1  UNL1       -0.1544
     29 O          64.7109   83.6743   13.7268 O.2     1  UNL1       -0.1544
@<TRIPOS>BOND
     1    26    27    1
     2    27    28    2
     3    27    29    2
     4    27    24    1
     5    24    18    1
     6    18    19   ar
     7    19    20   ar
     8    20    21   ar
     9    21    22   ar
    10    22    17    1
    11    17     1    1
    12     1     2    2
    13     1     3   am
    14     3     5    1
    15     5     6   ar
    16     6     7   ar
    17     7    10    1
    18    10    11   ar
    19    11    12   ar
    20    12    13   ar
    21    13    14   ar
    22    14    15    1
    23    14    16   ar
    24     7     8   ar
    25     8     9   ar
    26    22    23   ar
    27    23    18   ar
    28     9     5   ar
    29    16    10   ar
    30    24    25    1
    31     3     4    1
