@<TRIPOS>MOLECULE
*****
 45 49 0 0 0
SMALL
GASTEIGER

@<TRIPOS>ATOM
      1 C          60.0782   89.1014    6.5402 C.2     1  UNL1        0.2252
      2 O          59.4782   87.7787    6.1657 O.2     1  UNL1       -0.2749
      3 N          60.8282   89.2462    7.8313 N.am    1  UNL1       -0.2791
      4 C          61.4793   90.4993    8.3370 C.3     1  UNL1        0.0955
      5 C          62.1122   90.1907    9.6615 C.3     1  UNL1        0.0496
      6 C          61.8523   88.7470    9.9742 C.3     1  UNL1        0.1514
      7 C          62.2357   87.8884   11.1430 C.ar    1  UNL1       -0.0046
      8 C          63.0293   88.4722   12.2741 C.ar    1  UNL1       -0.0032
      9 C          63.4126   87.6136   13.4428 C.ar    1  UNL1       -0.0015
     10 C          63.0025   86.1713   13.4804 C.ar    1  UNL1        0.0232
     11 C          62.2089   85.5875   12.3493 C.ar    1  UNL1       -0.0057
     12 C          61.8255   86.4460   11.1806 C.ar    1  UNL1       -0.0247
     13 C          61.0319   85.8623   10.0494 C.3     1  UNL1        0.0278
     14 C          60.6486   86.7208    8.8807 C.3     1  UNL1        0.0265
     15 C          61.0587   88.1632    8.8432 C.3     1  UNL1        0.1001
     16 C          57.3644   90.2797    6.0432 C.3     1  UNL1        0.0005
     17 C          58.5715   90.8686    5.3754 C.3     1  UNL1        0.0090
     18 C          58.4217   92.0467    4.4590 C.3     1  UNL1        0.0060
     19 C          59.6288   92.6356    3.7911 C.3     1  UNL1        0.0366
     20 C          60.9857   92.0465    4.0396 C.3     1  UNL1        0.0060
     21 C          61.1355   90.8684    4.9559 C.3     1  UNL1        0.0094
     22 C          59.9284   90.2794    5.6239 C.3     1  UNL1        0.0767
     23 C          59.4790   93.8136    2.8747 C.2     1  UNL1        0.0500
     24 O          59.8536   95.1861    3.3502 O.co2   1  UNL1       -0.5492
     25 O          58.9547   93.6192    1.4828 O.co2   1  UNL1       -0.5492
     26 S          62.6431   89.4664   11.0264 S.O2    1  UNL1        0.0106
     27 O          63.4001   89.3788   10.7922 O.2     1  UNL1       -0.1684
     28 O          61.3724   89.8157   11.7428 O.2     1  UNL1       -0.1684
     29 C          63.4340   90.1859   12.0785 C.ar    1  UNL1        0.1061
     30 C          62.9837   90.1529   13.5088 C.ar    1  UNL1        0.0207
     31 C          63.7745   90.8723   14.5609 C.ar    1  UNL1        0.0310
     32 C          65.0157   91.6248   14.1826 C.ar    1  UNL1        0.1402
     33 F          65.8067   92.3443   15.2348 F       1  UNL1       -0.2042
     34 C          65.4661   91.6578   12.7522 C.ar    1  UNL1        0.0310
     35 C          64.6752   90.9384   11.7002 C.ar    1  UNL1        0.0207
     36 C          63.3859   85.3127   14.6491 C.3     1  UNL1        0.3242
     37 F          63.6340   86.5426   15.4711 F       1  UNL1       -0.2176
     38 C          63.7693   84.4542   15.8179 C.3     1  UNL1        0.4363
     39 F          64.1528   83.5957   16.9866 F       1  UNL1       -0.1666
     40 F          62.8224   85.2216   16.6922 F       1  UNL1       -0.1666
     41 F          64.7560   83.5879   15.0926 F       1  UNL1       -0.1666
     42 C          63.1378   84.0828   13.8271 C.3     1  UNL1        0.4363
     43 F          62.8897   82.8529   13.0050 F       1  UNL1       -0.1666
     44 F          61.9331   83.6002   14.5791 F       1  UNL1       -0.1666
     45 F          64.2260   84.1104   12.7950 F       1  UNL1       -0.1666
@<TRIPOS>UNITY_ATOM_ATTR
24 1
charge -1
@<TRIPOS>BOND
     1    17    16    1
     2    17    18    1
     3    18    19    1
     4    19    23    1
     5    23    24   ar
     6    23    25   ar
     7    19    20    1
     8    20    21    1
     9    21    22    1
    10    22     1    1
    11     1     2    2
    12     1     3   am
    13     3     4    1
    14     4     5    1
    15     5     6    1
    16     6    26    1
    17    26    27    2
    18    26    28    2
    19    26    29    1
    20    29    30   ar
    21    30    31   ar
    22    31    32   ar
    23    32    33    1
    24    32    34   ar
    25    34    35   ar
    26     6     7    1
    27     7     8   ar
    28     8     9   ar
    29     9    10   ar
    30    10    36    1
    31    36    37    1
    32    36    38    1
    33    38    39    1
    34    38    40    1
    35    38    41    1
    36    36    42    1
    37    42    43    1
    38    42    44    1
    39    42    45    1
    40    10    11   ar
    41    11    12   ar
    42    12    13    1
    43    13    14    1
    44    15    14    1
    45    22    17    1
    46    15     3    1
    47    15     6    1
    48    35    29   ar
    49    12     7   ar
@<TRIPOS>MOLECULE
*****
 45 49 0 0 0
SMALL
GASTEIGER

@<TRIPOS>ATOM
      1 C          64.9706   90.8888   13.4305 C.2     1  UNL1        0.2252
      2 O          65.3947   90.6926   14.8558 O.2     1  UNL1       -0.2749
      3 N          64.3364   89.7590   12.6744 N.am    1  UNL1       -0.2791
      4 C          63.8636   89.8059   11.2516 C.3     1  UNL1        0.0955
      5 C          63.2987   88.4599   10.9063 C.3     1  UNL1        0.0496
      6 C          63.4223   87.5813   12.1157 C.3     1  UNL1        0.1514
      7 C          63.0337   86.1537   12.3631 C.ar    1  UNL1       -0.0046
      8 C          62.3924   85.3508   11.2703 C.ar    1  UNL1       -0.0032
      9 C          62.0038   83.9234   11.5177 C.ar    1  UNL1       -0.0015
     10 C          62.2566   83.2987   12.8578 C.ar    1  UNL1        0.0232
     11 C          62.8979   84.1016   13.9506 C.ar    1  UNL1       -0.0057
     12 C          63.2864   85.5290   13.7032 C.ar    1  UNL1       -0.0247
     13 C          63.9278   86.3320   14.7959 C.3     1  UNL1        0.0278
     14 C          64.3163   87.7595   14.5485 C.3     1  UNL1        0.0265
     15 C          64.0636   88.3841   13.2084 C.3     1  UNL1        0.1001
     16 C          63.6011   91.4899   10.8298 C.3     1  UNL1        0.0005
     17 C          64.4959   92.5151   11.4608 C.3     1  UNL1        0.0090
     18 C          64.7059   93.8410   10.7915 C.3     1  UNL1        0.0060
     19 C          65.6007   94.8663   11.4224 C.3     1  UNL1        0.0366
     20 C          66.2854   94.5658   12.7228 C.3     1  UNL1        0.0060
     21 C          66.0754   93.2399   13.3921 C.3     1  UNL1        0.0094
     22 C          65.1806   92.2145   12.7611 C.3     1  UNL1        0.0767
     23 C          65.8107   96.1921   10.7531 C.2     1  UNL1        0.0500
     24 O          64.6768   96.8542   10.0278 O.co2   1  UNL1       -0.5492
     25 O          67.1548   96.8560   10.8090 O.co2   1  UNL1       -0.5492
     26 S          62.7927   86.9067   10.9331 S.O2    1  UNL1        0.0106
     27 O          63.4114   86.6045   10.5314 O.2     1  UNL1       -0.1684
     28 O          61.4358   87.3244   11.4171 O.2     1  UNL1       -0.1684
     29 C          62.1631   86.2320    9.7505 C.ar    1  UNL1        0.1061
     30 C          62.9552   85.2524    8.9364 C.ar    1  UNL1        0.0207
     31 C          62.3257   84.5778    7.7538 C.ar    1  UNL1        0.0310
     32 C          60.9041   84.8828    7.3853 C.ar    1  UNL1        0.1402
     33 F          60.2745   84.2081    6.2026 F       1  UNL1       -0.2042
     34 C          60.1119   85.8624    8.1994 C.ar    1  UNL1        0.0310
     35 C          60.7414   86.5370    9.3820 C.ar    1  UNL1        0.0207
     36 C          61.8680   81.8711   13.1052 C.3     1  UNL1        0.3242
     37 F          61.3660   81.7636   11.6958 F       1  UNL1       -0.2176
     38 C          61.4794   80.4436   13.3525 C.3     1  UNL1        0.4363
     39 F          61.0908   79.0161   13.5998 F       1  UNL1       -0.1666
     40 F          60.3018   80.9040   14.1596 F       1  UNL1       -0.1666
     41 F          62.6008   79.8127   12.5816 F       1  UNL1       -0.1666
     42 C          62.3699   81.9787   14.5146 C.3     1  UNL1        0.4363
     43 F          62.8719   82.0862   15.9241 F       1  UNL1       -0.1666
     44 F          61.1521   82.6363   15.0928 F       1  UNL1       -0.1666
     45 F          63.7418   81.3746   14.4584 F       1  UNL1       -0.1666
@<TRIPOS>UNITY_ATOM_ATTR
24 1
charge -1
@<TRIPOS>BOND
     1    17    16    1
     2    17    18    1
     3    18    19    1
     4    19    23    1
     5    23    24   ar
     6    23    25   ar
     7    19    20    1
     8    20    21    1
     9    21    22    1
    10    22     1    1
    11     1     2    2
    12     1     3   am
    13     3     4    1
    14     4     5    1
    15     5     6    1
    16     6    26    1
    17    26    27    2
    18    26    28    2
    19    26    29    1
    20    29    30   ar
    21    30    31   ar
    22    31    32   ar
    23    32    33    1
    24    32    34   ar
    25    34    35   ar
    26     6     7    1
    27     7     8   ar
    28     8     9   ar
    29     9    10   ar
    30    10    36    1
    31    36    37    1
    32    36    38    1
    33    38    39    1
    34    38    40    1
    35    38    41    1
    36    36    42    1
    37    42    43    1
    38    42    44    1
    39    42    45    1
    40    10    11   ar
    41    11    12   ar
    42    12    13    1
    43    13    14    1
    44    15    14    1
    45    22    17    1
    46    15     3    1
    47    15     6    1
    48    35    29   ar
    49    12     7   ar
@<TRIPOS>MOLECULE
*****
 45 49 0 0 0
SMALL
GASTEIGER

@<TRIPOS>ATOM
      1 C          59.2668   89.9603    6.4643 C.2     1  UNL1        0.2252
      2 O          57.7771   89.8280    6.3497 O.2     1  UNL1       -0.2749
      3 N          60.0341   90.7244    5.4262 N.am    1  UNL1       -0.2791
      4 C          61.5183   90.9401    5.4079 C.3     1  UNL1        0.0955
      5 C          61.8533   91.7559    4.1945 C.3     1  UNL1        0.0496
      6 C          60.5760   92.0443    3.4629 C.3     1  UNL1        0.1514
      7 C          60.2914   92.8052    2.2018 C.ar    1  UNL1       -0.0046
      8 C          61.4158   93.4427    1.4407 C.ar    1  UNL1       -0.0032
      9 C          61.1312   94.2035    0.1797 C.ar    1  UNL1       -0.0015
     10 C          59.7223   94.3267   -0.3202 C.ar    1  UNL1        0.0232
     11 C          58.5980   93.6892    0.4410 C.ar    1  UNL1       -0.0057
     12 C          58.8825   92.9284    1.7020 C.ar    1  UNL1       -0.0247
     13 C          57.7582   92.2909    2.4633 C.3     1  UNL1        0.0278
     14 C          58.0428   91.5301    3.7243 C.3     1  UNL1        0.0265
     15 C          59.4516   91.4068    4.2241 C.3     1  UNL1        0.1001
     16 C          59.2395   86.9791    6.7996 C.3     1  UNL1        0.0005
     17 C          59.9758   87.8380    7.7846 C.3     1  UNL1        0.0090
     18 C          60.6985   87.2062    8.9373 C.3     1  UNL1        0.0060
     19 C          61.4348   88.0650    9.9223 C.3     1  UNL1        0.0366
     20 C          61.4484   89.5555    9.7547 C.3     1  UNL1        0.0060
     21 C          60.7258   90.1873    8.6021 C.3     1  UNL1        0.0094
     22 C          59.9894   89.3285    7.6169 C.3     1  UNL1        0.0767
     23 C          62.1574   87.4332   11.0750 C.2     1  UNL1        0.0500
     24 O          62.2066   85.9394   11.2015 O.co2   1  UNL1       -0.5492
     25 O          62.8309   88.2954   12.1013 O.co2   1  UNL1       -0.5492
     26 S          61.7964   92.6250    2.8122 S.O2    1  UNL1        0.0106
     27 O          61.8237   93.3730    3.0865 O.2     1  UNL1       -0.1684
     28 O          62.0476   91.3193    2.1180 O.2     1  UNL1       -0.1684
     29 C          63.0168   93.2058    2.1614 C.ar    1  UNL1        0.1061
     30 C          63.4338   94.6129    2.4707 C.ar    1  UNL1        0.0207
     31 C          64.6542   95.1937    1.8201 C.ar    1  UNL1        0.0310
     32 C          65.4575   94.3672    0.8601 C.ar    1  UNL1        0.1402
     33 F          66.6779   94.9480    0.2093 F       1  UNL1       -0.2042
     34 C          65.0404   92.9599    0.5508 C.ar    1  UNL1        0.0310
     35 C          63.8201   92.3792    1.2015 C.ar    1  UNL1        0.0207
     36 C          59.4378   95.0876   -1.5812 C.3     1  UNL1        0.3242
     37 F          59.9107   96.3511   -0.9256 F       1  UNL1       -0.2176
     38 C          59.1533   95.8484   -2.8422 C.3     1  UNL1        0.4363
     39 F          58.8688   96.6093   -4.1033 F       1  UNL1       -0.1666
     40 F          58.2770   96.7932   -2.0745 F       1  UNL1       -0.1666
     41 F          59.9883   95.0034   -3.7580 F       1  UNL1       -0.1666
     42 C          58.9648   93.8241   -2.2369 C.3     1  UNL1        0.4363
     43 F          58.4920   92.5605   -2.8926 F       1  UNL1       -0.1666
     44 F          57.5450   94.2537   -2.4590 F       1  UNL1       -0.1666
     45 F          60.1822   92.9478   -2.2566 F       1  UNL1       -0.1666
@<TRIPOS>UNITY_ATOM_ATTR
24 1
charge -1
@<TRIPOS>BOND
     1    17    16    1
     2    17    18    1
     3    18    19    1
     4    19    23    1
     5    23    24   ar
     6    23    25   ar
     7    19    20    1
     8    20    21    1
     9    21    22    1
    10    22     1    1
    11     1     2    2
    12     1     3   am
    13     3     4    1
    14     4     5    1
    15     5     6    1
    16     6    26    1
    17    26    27    2
    18    26    28    2
    19    26    29    1
    20    29    30   ar
    21    30    31   ar
    22    31    32   ar
    23    32    33    1
    24    32    34   ar
    25    34    35   ar
    26     6     7    1
    27     7     8   ar
    28     8     9   ar
    29     9    10   ar
    30    10    36    1
    31    36    37    1
    32    36    38    1
    33    38    39    1
    34    38    40    1
    35    38    41    1
    36    36    42    1
    37    42    43    1
    38    42    44    1
    39    42    45    1
    40    10    11   ar
    41    11    12   ar
    42    12    13    1
    43    13    14    1
    44    15    14    1
    45    22    17    1
    46    15     3    1
    47    15     6    1
    48    35    29   ar
    49    12     7   ar
