@<TRIPOS>MOLECULE
*****
 21 24 0 0 0
SMALL
GASTEIGER

@<TRIPOS>ATOM
      1 C          63.1342   85.1097    8.5090 C.3     1  UNL1        0.1152
      2 N          62.8007   84.8820    9.9537 N.am    1  UNL1       -0.2722
      3 C          63.5626   83.8627   10.7477 C.2     1  UNL1        0.2250
      4 O          64.6580   83.0709   10.0970 O.2     1  UNL1       -0.2749
      5 C          63.2291   83.6351   12.1924 C.3     1  UNL1        0.0691
      6 C          62.8016   82.2748   12.6581 C.3     1  UNL1        0.0086
      7 C          62.4681   82.0473   14.1027 C.3     1  UNL1        0.0005
      8 C          62.5622   83.1799   15.0816 C.3     1  UNL1        0.0000
      9 C          62.9898   84.5401   14.6159 C.3     1  UNL1        0.0005
     10 C          63.0087   82.5814   11.9754 C.3     1  UNL1        0.0000
     11 C          62.7075   81.1422   11.6792 C.3     1  UNL1        0.0005
     12 C          62.3740   80.9146   13.1238 C.3     1  UNL1        0.0000
     13 C          63.1350   82.5024   11.2135 C.3     1  UNL1        0.0086
     14 C          63.3232   84.7677   13.1713 C.3     1  UNL1        0.0086
     15 C          61.7054   85.6738   10.6043 C.3     1  UNL1        0.1373
     16 C          61.4609   87.0952   10.1920 C.ar    1  UNL1        0.0574
     17 C          62.1523   88.3054   10.7464 C.ar    1  UNL1        0.0160
     18 C          61.6007   89.5140   10.0499 C.ar    1  UNL1        0.0199
     19 C          60.5684   89.0508    9.0651 C.ar    1  UNL1        0.0758
     20 N          60.4820   87.5558    9.1530 N.ar    1  UNL1       -0.3260
     21 C          59.5758   86.6760    8.3438 C.3     1  UNL1        0.1302
@<TRIPOS>BOND
     1     1     2    1
     2     2    15    1
     3    15    16    1
     4    16    17   ar
     5    17    18   ar
     6    18    19   ar
     7    19    20   ar
     8    20    21    1
     9     2     3   am
    10     3     4    2
    11     3     5    1
    12     5     6    1
    13     6     7    1
    14     7     8    1
    15     8     9    1
    16     9    10    1
    17    10    11    1
    18    11    12    1
    19    11    13    1
    20     9    14    1
    21    20    16   ar
    22    13     5    1
    23    14     5    1
    24    12     7    1
@<TRIPOS>MOLECULE
*****
 21 24 0 0 0
SMALL
GASTEIGER

@<TRIPOS>ATOM
      1 C          63.6761   83.5138   10.2671 C.3     1  UNL1        0.1152
      2 N          62.8654   84.7693   10.3963 N.am    1  UNL1       -0.2722
      3 C          62.6495   85.6490    9.2007 C.2     1  UNL1        0.2250
      4 O          63.2443   85.2733    7.8759 O.2     1  UNL1       -0.2749
      5 C          61.8387   86.9044    9.3299 C.3     1  UNL1        0.0691
      6 C          60.5542   87.0493    8.5690 C.3     1  UNL1        0.0086
      7 C          59.7435   88.3047    8.6982 C.3     1  UNL1        0.0005
      8 C          60.2174   89.4152    9.5882 C.3     1  UNL1        0.0000
      9 C          61.5019   89.2704   10.3491 C.3     1  UNL1        0.0005
     10 C          61.0955   86.4963    8.6321 C.3     1  UNL1        0.0000
     11 C          60.0803   85.9388    7.6789 C.3     1  UNL1        0.0005
     12 C          59.2697   87.1942    7.8081 C.3     1  UNL1        0.0000
     13 C          61.3649   85.7939    8.4398 C.3     1  UNL1        0.0086
     14 C          62.3126   88.0150   10.2199 C.3     1  UNL1        0.0086
     15 C          62.2705   85.1450   11.7211 C.3     1  UNL1        0.1373
     16 C          63.0428   84.9064   12.9847 C.ar    1  UNL1        0.0574
     17 C          63.9114   85.9059   13.6893 C.ar    1  UNL1        0.0160
     18 C          64.4875   85.2436   14.9056 C.ar    1  UNL1        0.0199
     19 C          63.9750   83.8346   14.9527 C.ar    1  UNL1        0.0758
     20 N          63.0821   83.6262   13.7655 N.ar    1  UNL1       -0.3260
     21 C          62.3561   82.3599   13.4199 C.3     1  UNL1        0.1302
@<TRIPOS>BOND
     1     1     2    1
     2     2    15    1
     3    15    16    1
     4    16    17   ar
     5    17    18   ar
     6    18    19   ar
     7    19    20   ar
     8    20    21    1
     9     2     3   am
    10     3     4    2
    11     3     5    1
    12     5     6    1
    13     6     7    1
    14     7     8    1
    15     8     9    1
    16     9    10    1
    17    10    11    1
    18    11    12    1
    19    11    13    1
    20     9    14    1
    21    20    16   ar
    22    13     5    1
    23    14     5    1
    24    12     7    1
@<TRIPOS>MOLECULE
*****
 21 24 0 0 0
SMALL
GASTEIGER

@<TRIPOS>ATOM
      1 C          66.9958   92.8557   15.1360 C.3     1  UNL1        0.1152
      2 N          66.2635   92.1190   14.0538 N.am    1  UNL1       -0.2722
      3 C          64.9106   91.5325   14.3289 C.2     1  UNL1        0.2250
      4 O          64.2899   91.6828   15.6862 O.2     1  UNL1       -0.2749
      5 C          64.1782   90.7958   13.2467 C.3     1  UNL1        0.0691
      6 C          63.9360   89.3211   13.3750 C.3     1  UNL1        0.0086
      7 C          63.2038   88.5845   12.2928 C.3     1  UNL1        0.0005
      8 C          62.7137   89.3226   11.0824 C.3     1  UNL1        0.0000
      9 C          62.9559   90.7973   10.9542 C.3     1  UNL1        0.0005
     10 C          64.2830   89.8606   13.8125 C.3     1  UNL1        0.0000
     11 C          64.4261   88.5830   14.5854 C.3     1  UNL1        0.0005
     12 C          63.6938   87.8464   13.5032 C.3     1  UNL1        0.0000
     13 C          64.6683   90.0577   14.4571 C.3     1  UNL1        0.0086
     14 C          63.6882   91.5340   12.0364 C.3     1  UNL1        0.0086
     15 C          66.8841   91.9687   12.6965 C.3     1  UNL1        0.1373
     16 C          66.8033   93.0926   11.7063 C.ar    1  UNL1        0.0574
     17 C          66.1222   94.4114   11.9230 C.ar    1  UNL1        0.0160
     18 C          66.2874   95.2288   10.6762 C.ar    1  UNL1        0.0199
     19 C          67.0706   94.4152    9.6889 C.ar    1  UNL1        0.0758
     20 N          67.3895   93.0949   10.3256 N.ar    1  UNL1       -0.3260
     21 C          68.1593   91.9739    9.6926 C.3     1  UNL1        0.1302
@<TRIPOS>BOND
     1     1     2    1
     2     2    15    1
     3    15    16    1
     4    16    17   ar
     5    17    18   ar
     6    18    19   ar
     7    19    20   ar
     8    20    21    1
     9     2     3   am
    10     3     4    2
    11     3     5    1
    12     5     6    1
    13     6     7    1
    14     7     8    1
    15     8     9    1
    16     9    10    1
    17    10    11    1
    18    11    12    1
    19    11    13    1
    20     9    14    1
    21    20    16   ar
    22    13     5    1
    23    14     5    1
    24    12     7    1
@<TRIPOS>MOLECULE
*****
 21 24 0 0 0
SMALL
GASTEIGER

@<TRIPOS>ATOM
      1 C          60.1077   89.7669   10.7244 C.3     1  UNL1        0.1152
      2 N          61.0505   88.6153   10.9118 N.am    1  UNL1       -0.2722
      3 C          60.7654   87.2978   10.2539 C.2     1  UNL1        0.2250
      4 O          59.5374   87.1318    9.4087 O.2     1  UNL1       -0.2749
      5 C          61.7083   86.1463   10.4413 C.3     1  UNL1        0.0691
      6 C          62.3659   85.5140    9.2506 C.3     1  UNL1        0.0086
      7 C          63.3087   84.3625    9.4380 C.3     1  UNL1        0.0005
      8 C          63.5939   83.8434   10.8161 C.3     1  UNL1        0.0000
      9 C          62.9363   84.4757   12.0068 C.3     1  UNL1        0.0005
     10 C          61.8656   86.0985    9.3556 C.3     1  UNL1        0.0000
     11 C          62.0806   86.0332    7.8726 C.3     1  UNL1        0.0005
     12 C          63.0234   84.8817    8.0600 C.3     1  UNL1        0.0000
     13 C          61.4230   86.6655    9.0632 C.3     1  UNL1        0.0086
     14 C          61.9935   85.6271   11.8194 C.3     1  UNL1        0.0086
     15 C          62.2785   88.7814   11.7571 C.3     1  UNL1        0.1373
     16 C          63.1201   90.0159   11.6229 C.ar    1  UNL1        0.0574
     17 C          63.2993   90.8295   10.3756 C.ar    1  UNL1        0.0160
     18 C          64.2201   91.9699   10.6943 C.ar    1  UNL1        0.0199
     19 C          64.6101   91.8610   12.1387 C.ar    1  UNL1        0.0758
     20 N          63.9302   90.6533   12.7126 N.ar    1  UNL1       -0.3260
     21 C          64.0410   90.1683   14.1277 C.3     1  UNL1        0.1302
@<TRIPOS>BOND
     1     1     2    1
     2     2    15    1
     3    15    16    1
     4    16    17   ar
     5    17    18   ar
     6    18    19   ar
     7    19    20   ar
     8    20    21    1
     9     2     3   am
    10     3     4    2
    11     3     5    1
    12     5     6    1
    13     6     7    1
    14     7     8    1
    15     8     9    1
    16     9    10    1
    17    10    11    1
    18    11    12    1
    19    11    13    1
    20     9    14    1
    21    20    16   ar
    22    13     5    1
    23    14     5    1
    24    12     7    1
@<TRIPOS>MOLECULE
*****
 21 24 0 0 0
SMALL
GASTEIGER

@<TRIPOS>ATOM
      1 C          62.8097   87.9102   12.5526 C.3     1  UNL1        0.1152
      2 N          62.3859   87.0051   11.4339 N.am    1  UNL1       -0.2722
      3 C          62.3978   87.5046   10.0196 C.2     1  UNL1        0.2250
      4 O          62.8334   88.9091    9.7238 O.2     1  UNL1       -0.2749
      5 C          61.9739   86.5995    8.9009 C.3     1  UNL1        0.0691
      6 C          60.5644   86.6477    8.3902 C.3     1  UNL1        0.0086
      7 C          60.1407   85.7427    7.2716 C.3     1  UNL1        0.0005
      8 C          61.1265   84.7894    6.6638 C.3     1  UNL1        0.0000
      9 C          62.5360   84.7412    7.1745 C.3     1  UNL1        0.0005
     10 C          60.9616   87.0228    8.9420 C.3     1  UNL1        0.0000
     11 C          59.5787   87.6010    8.9981 C.3     1  UNL1        0.0005
     12 C          59.1549   86.6959    7.8795 C.3     1  UNL1        0.0000
     13 C          60.9882   87.5528    9.5088 C.3     1  UNL1        0.0086
     14 C          62.9597   85.6462    8.2931 C.3     1  UNL1        0.0086
     15 C          61.9502   85.6006   11.7297 C.3     1  UNL1        0.1373
     16 C          62.9748   84.5211   11.9167 C.ar    1  UNL1        0.0574
     17 C          63.4819   83.5930   10.8530 C.ar    1  UNL1        0.0160
     18 C          64.4928   82.6786   11.4792 C.ar    1  UNL1        0.0199
     19 C          64.6104   83.0416   12.9299 C.ar    1  UNL1        0.0758
     20 N          63.6722   84.1804   13.2003 N.ar    1  UNL1       -0.3260
     21 C          63.4675   84.8592   14.5221 C.3     1  UNL1        0.1302
@<TRIPOS>BOND
     1     1     2    1
     2     2    15    1
     3    15    16    1
     4    16    17   ar
     5    17    18   ar
     6    18    19   ar
     7    19    20   ar
     8    20    21    1
     9     2     3   am
    10     3     4    2
    11     3     5    1
    12     5     6    1
    13     6     7    1
    14     7     8    1
    15     8     9    1
    16     9    10    1
    17    10    11    1
    18    11    12    1
    19    11    13    1
    20     9    14    1
    21    20    16   ar
    22    13     5    1
    23    14     5    1
    24    12     7    1
@<TRIPOS>MOLECULE
*****
 21 24 0 0 0
SMALL
GASTEIGER

@<TRIPOS>ATOM
      1 C          64.1464   83.2749   15.1540 C.3     1  UNL1        0.1152
      2 N          63.7790   84.2318   14.0589 N.am    1  UNL1       -0.2722
      3 C          63.0082   83.7473   12.8668 C.2     1  UNL1        0.2250
      4 O          62.6047   82.3058   12.7698 O.2     1  UNL1       -0.2749
      5 C          62.6407   84.7043   11.7716 C.3     1  UNL1        0.0691
      6 C          63.1267   84.4656   10.3728 C.3     1  UNL1        0.0086
      7 C          62.7593   85.4226    9.2777 C.3     1  UNL1        0.0005
      8 C          61.9059   86.6182    9.5815 C.3     1  UNL1        0.0000
      9 C          61.4199   86.8568   10.9804 C.3     1  UNL1        0.0005
     10 C          63.2069   84.0981   11.0520 C.3     1  UNL1        0.0000
     11 C          63.9801   83.2700   10.0690 C.3     1  UNL1        0.0005
     12 C          63.6127   84.2270    8.9739 C.3     1  UNL1        0.0000
     13 C          63.4941   83.5087   11.4679 C.3     1  UNL1        0.0086
     14 C          61.7874   85.8999   12.0754 C.3     1  UNL1        0.0086
     15 C          64.1824   85.6733   14.1558 C.3     1  UNL1        0.1373
     16 C          63.7363   86.4999   15.3254 C.ar    1  UNL1        0.0574
     17 C          63.1551   85.9758   16.6050 C.ar    1  UNL1        0.0160
     18 C          62.8528   87.1477   17.4911 C.ar    1  UNL1        0.0199
     19 C          63.2471   88.3962   16.7591 C.ar    1  UNL1        0.0758
     20 N          63.7933   87.9958   15.4205 N.ar    1  UNL1       -0.3260
     21 C          64.3062   88.9277   14.3630 C.3     1  UNL1        0.1302
@<TRIPOS>BOND
     1     1     2    1
     2     2    15    1
     3    15    16    1
     4    16    17   ar
     5    17    18   ar
     6    18    19   ar
     7    19    20   ar
     8    20    21    1
     9     2     3   am
    10     3     4    2
    11     3     5    1
    12     5     6    1
    13     6     7    1
    14     7     8    1
    15     8     9    1
    16     9    10    1
    17    10    11    1
    18    11    12    1
    19    11    13    1
    20     9    14    1
    21    20    16   ar
    22    13     5    1
    23    14     5    1
    24    12     7    1
@<TRIPOS>MOLECULE
*****
 21 24 0 0 0
SMALL
GASTEIGER

@<TRIPOS>ATOM
      1 C          63.8263   87.0955   13.2683 C.3     1  UNL1        0.1152
      2 N          63.2129   85.7406   13.0725 N.am    1  UNL1       -0.2722
      3 C          63.9103   84.5192   13.5937 C.2     1  UNL1        0.2250
      4 O          65.2211   84.6525   14.3107 O.2     1  UNL1       -0.2749
      5 C          63.2970   83.1644   13.3978 C.3     1  UNL1        0.0691
      6 C          63.5887   82.3820   12.1517 C.3     1  UNL1        0.0086
      7 C          62.9754   81.0273   11.9560 C.3     1  UNL1        0.0005
      8 C          62.0703   80.4548   13.0063 C.3     1  UNL1        0.0000
      9 C          61.7786   81.2372   14.2524 C.3     1  UNL1        0.0005
     10 C          63.8028   83.0757   12.4272 C.3     1  UNL1        0.0000
     11 C          64.4938   82.9545   11.1014 C.3     1  UNL1        0.0005
     12 C          63.8805   81.5997   10.9057 C.3     1  UNL1        0.0000
     13 C          64.2021   83.7368   12.3475 C.3     1  UNL1        0.0086
     14 C          62.3919   82.5919   14.4481 C.3     1  UNL1        0.0086
     15 C          61.9022   85.6073   12.3554 C.3     1  UNL1        0.1373
     16 C          61.7806   86.0480   10.9267 C.ar    1  UNL1        0.0574
     17 C          62.4663   85.4210    9.7492 C.ar    1  UNL1        0.0160
     18 C          62.0615   86.1786    8.5195 C.ar    1  UNL1        0.0199
     19 C          61.1255   87.2740    8.9371 C.ar    1  UNL1        0.0758
     20 N          60.9520   87.1933   10.4249 N.ar    1  UNL1       -0.3260
     21 C          60.0995   88.0988   11.2635 C.3     1  UNL1        0.1302
@<TRIPOS>BOND
     1     1     2    1
     2     2    15    1
     3    15    16    1
     4    16    17   ar
     5    17    18   ar
     6    18    19   ar
     7    19    20   ar
     8    20    21    1
     9     2     3   am
    10     3     4    2
    11     3     5    1
    12     5     6    1
    13     6     7    1
    14     7     8    1
    15     8     9    1
    16     9    10    1
    17    10    11    1
    18    11    12    1
    19    11    13    1
    20     9    14    1
    21    20    16   ar
    22    13     5    1
    23    14     5    1
    24    12     7    1
@<TRIPOS>MOLECULE
*****
 21 24 0 0 0
SMALL
GASTEIGER

@<TRIPOS>ATOM
      1 C          63.4944   85.1012    8.6938 C.3     1  UNL1        0.1152
      2 N          62.9130   84.6142    9.9880 N.am    1  UNL1       -0.2722
      3 C          63.5971   83.5204   10.7531 C.2     1  UNL1        0.2250
      4 O          64.8627   82.9135   10.2241 O.2     1  UNL1       -0.2749
      5 C          63.0157   83.0334   12.0473 C.3     1  UNL1        0.0691
      6 C          63.1649   83.8556   13.2930 C.3     1  UNL1        0.0086
      7 C          62.5834   83.3686   14.5871 C.3     1  UNL1        0.0005
      8 C          61.8528   82.0595   14.6355 C.3     1  UNL1        0.0000
      9 C          61.7036   81.2373   13.3898 C.3     1  UNL1        0.0005
     10 C          63.3876   83.9342   12.5533 C.3     1  UNL1        0.0000
     11 C          63.8955   85.1647   13.2446 C.3     1  UNL1        0.0005
     12 C          63.3141   84.6777   14.5387 C.3     1  UNL1        0.0000
     13 C          63.7463   84.3426   11.9989 C.3     1  UNL1        0.0086
     14 C          62.2850   81.7243   12.0957 C.3     1  UNL1        0.0086
     15 C          61.6474   85.2212   10.5171 C.3     1  UNL1        0.1373
     16 C          61.0925   86.4653    9.8890 C.ar    1  UNL1        0.0574
     17 C          60.0897   86.5186    8.7748 C.ar    1  UNL1        0.0160
     18 C          59.8205   87.9607    8.4620 C.ar    1  UNL1        0.0199
     19 C          60.6571   88.7987    9.3829 C.ar    1  UNL1        0.0758
     20 N          61.4432   87.8744   10.2649 N.ar    1  UNL1       -0.3260
     21 C          62.4102   88.2869   11.3348 C.3     1  UNL1        0.1302
@<TRIPOS>BOND
     1     1     2    1
     2     2    15    1
     3    15    16    1
     4    16    17   ar
     5    17    18   ar
     6    18    19   ar
     7    19    20   ar
     8    20    21    1
     9     2     3   am
    10     3     4    2
    11     3     5    1
    12     5     6    1
    13     6     7    1
    14     7     8    1
    15     8     9    1
    16     9    10    1
    17    10    11    1
    18    11    12    1
    19    11    13    1
    20     9    14    1
    21    20    16   ar
    22    13     5    1
    23    14     5    1
    24    12     7    1
@<TRIPOS>MOLECULE
*****
 21 24 0 0 0
SMALL
GASTEIGER

@<TRIPOS>ATOM
      1 C          60.5913   87.3921   10.8474 C.3     1  UNL1        0.1152
      2 N          61.7804   88.0852   11.4440 N.am    1  UNL1       -0.2722
      3 C          61.7175   89.5521   11.7508 C.2     1  UNL1        0.2250
      4 O          60.4657   90.3260   11.4611 O.2     1  UNL1       -0.2749
      5 C          62.9066   90.2453   12.3473 C.3     1  UNL1        0.0691
      6 C          63.7173   91.1939   11.5151 C.3     1  UNL1        0.0086
      7 C          64.9063   91.8870   12.1116 C.3     1  UNL1        0.0005
      8 C          65.2846   91.6313   13.5404 C.3     1  UNL1        0.0000
      9 C          64.4739   90.6826   14.3727 C.3     1  UNL1        0.0005
     10 C          63.0893   90.7543   11.3916 C.3     1  UNL1        0.0000
     11 C          63.3390   91.4496   10.0862 C.3     1  UNL1        0.0005
     12 C          64.5280   92.1426   10.6828 C.3     1  UNL1        0.0000
     13 C          62.5283   90.5009   10.9185 C.3     1  UNL1        0.0086
     14 C          63.2849   89.9896   13.7761 C.3     1  UNL1        0.0086
     15 C          63.0323   87.3114   11.7336 C.3     1  UNL1        0.1373
     16 C          62.9533   85.8457   12.0433 C.ar    1  UNL1        0.0574
     17 C          62.3875   84.7845   11.1469 C.ar    1  UNL1        0.0160
     18 C          62.5107   83.4670   11.8533 C.ar    1  UNL1        0.0199
     19 C          63.1527   83.7140   13.1863 C.ar    1  UNL1        0.0758
     20 N          63.4262   85.1843   13.3037 N.ar    1  UNL1       -0.3260
     21 C          64.0612   85.8721   14.4758 C.3     1  UNL1        0.1302
@<TRIPOS>BOND
     1     1     2    1
     2     2    15    1
     3    15    16    1
     4    16    17   ar
     5    17    18   ar
     6    18    19   ar
     7    19    20   ar
     8    20    21    1
     9     2     3   am
    10     3     4    2
    11     3     5    1
    12     5     6    1
    13     6     7    1
    14     7     8    1
    15     8     9    1
    16     9    10    1
    17    10    11    1
    18    11    12    1
    19    11    13    1
    20     9    14    1
    21    20    16   ar
    22    13     5    1
    23    14     5    1
    24    12     7    1
