@<TRIPOS>MOLECULE
*****
 33 37 0 0 0
SMALL
GASTEIGER

@<TRIPOS>ATOM
      1 C          64.0013   87.8791   13.6880 C.ar    1  UNL1        0.0722
      2 C          64.7998   88.8337   14.5254 C.ar    1  UNL1        0.0828
      3 N          64.9068   90.2750   14.1239 N.ar    1  UNL1       -0.2947
      4 C          64.2152   90.7617   12.8850 C.ar    1  UNL1        0.2767
      5 O          64.3222   92.2030   12.4835 O.2     1  UNL1       -0.2654
      6 C          63.4167   89.8072   12.0476 C.ar    1  UNL1        0.1170
      7 C          63.3097   88.3659   12.4491 C.ar    1  UNL1        0.0277
      8 C          62.4585   87.6636   11.4331 C.ar    1  UNL1        0.0175
      9 C          62.0109   86.2370   11.3124 C.ar    1  UNL1        0.0015
     10 C          61.1442   85.8178   10.1622 C.ar    1  UNL1        0.0001
     11 C          60.7250   86.8251    9.1328 C.ar    1  UNL1        0.0015
     12 C          61.1726   88.2516    9.2535 C.ar    1  UNL1        0.0172
     13 C          62.0393   88.6708   10.4037 C.ar    1  UNL1        0.0601
     14 N          62.6315   89.9956   10.7835 N.ar    1  UNL1       -0.3214
     15 C          62.4674   91.2829   10.0312 C.3     1  UNL1        0.1306
     16 C          65.7053   91.2296   14.9613 C.3     1  UNL1        0.0885
     17 C          65.1774   92.0701   16.0859 C.3     1  UNL1        0.0227
     18 C          66.3177   92.8712   16.6407 C.3     1  UNL1        0.0020
     19 C          67.5504   92.5258   15.8590 C.3     1  UNL1        0.0020
     20 C          67.1719   91.5112   14.8210 C.3     1  UNL1        0.0227
     21 N          64.4955   85.3712   13.2229 N.am    1  UNL1       -0.2995
     22 C          63.8943   86.4378   14.0895 C.2     1  UNL1        0.2474
     23 O          63.1862   86.0631   15.3576 O.2     1  UNL1       -0.2701
     24 H          64.9603   85.6172   12.3906 H       1  UNL1        0.1498
     25 C          64.3886   83.9299   13.6245 C.3     1  UNL1        0.1056
     26 N          62.7721   81.9545   12.8310 N.3     1  UNL1       -0.2737
     27 C          62.6480   81.1186   11.5917 C.3     1  UNL1        0.0721
     28 C          63.7116   81.5564   10.6289 C.3     1  UNL1        0.0188
     29 C          64.4932   82.6628   11.2732 C.3     1  UNL1        0.0191
     30 C          63.9125   82.9088   12.6342 C.3     1  UNL1        0.0771
     31 C          60.8751   80.7703   14.1535 C.3     1  UNL1        0.0173
     32 C          61.9076   81.8537   14.0527 C.3     1  UNL1        0.0576
     33 C          62.0756   82.8363   15.1735 C.3     1  UNL1        0.0173
@<TRIPOS>BOND
     1    31    32    1
     2    32    33    1
     3    32    26    1
     4    26    27    1
     5    27    28    1
     6    28    29    1
     7    29    30    1
     8    30    25    1
     9    25    21    1
    10    21    22   am
    11    22    23    2
    12    22     1    1
    13     1     2   ar
    14     2     3   ar
    15     3    16    1
    16    16    17    1
    17    17    18    1
    18    18    19    1
    19    19    20    1
    20     3     4   ar
    21     4     5    2
    22     4     6   ar
    23     6     7   ar
    24     7     8   ar
    25     8     9   ar
    26     9    10   ar
    27    10    11   ar
    28    11    12   ar
    29    12    13   ar
    30    13    14   ar
    31    14    15    1
    32    30    26    1
    33     7     1   ar
    34    13     8   ar
    35    20    16    1
    36    14     6   ar
    37    21    24    1
@<TRIPOS>MOLECULE
*****
 33 37 0 0 0
SMALL
GASTEIGER

@<TRIPOS>ATOM
      1 C          63.9239   87.5777   13.8432 C.ar    1  UNL1        0.0722
      2 C          64.5689   88.6314   14.6939 C.ar    1  UNL1        0.0828
      3 N          64.5441   90.0664   14.2578 N.ar    1  UNL1       -0.2947
      4 C          63.8744   90.4477   12.9710 C.ar    1  UNL1        0.2767
      5 O          63.8497   91.8827   12.5348 O.2     1  UNL1       -0.2654
      6 C          63.2295   89.3940   12.1202 C.ar    1  UNL1        0.1170
      7 C          63.2542   87.9590   12.5563 C.ar    1  UNL1        0.0277
      8 C          62.5400   87.1464   11.5173 C.ar    1  UNL1        0.0175
      9 C          62.2539   85.6776   11.4138 C.ar    1  UNL1        0.0015
     10 C          61.5016   85.1415   10.2319 C.ar    1  UNL1        0.0001
     11 C          61.0355   86.0743    9.1537 C.ar    1  UNL1        0.0015
     12 C          61.3216   87.5431    9.2572 C.ar    1  UNL1        0.0172
     13 C          62.0738   88.0791   10.4390 C.ar    1  UNL1        0.0601
     14 N          62.5000   89.4682   10.8116 N.ar    1  UNL1       -0.3214
     15 C          62.2419   90.7130   10.0154 C.3     1  UNL1        0.1306
     16 C          65.1891   91.1201   15.1086 C.3     1  UNL1        0.0885
     17 C          64.5585   91.8175   16.2773 C.3     1  UNL1        0.0227
     18 C          65.5575   92.7898   16.8311 C.3     1  UNL1        0.0020
     19 C          66.8056   92.6932   16.0046 C.3     1  UNL1        0.0020
     20 C          66.5779   91.6613   14.9401 C.3     1  UNL1        0.0227
     21 N          64.6853   85.1231   13.4622 N.am    1  UNL1       -0.2995
     22 C          63.9486   86.1427   14.2793 C.2     1  UNL1        0.2474
     23 O          63.2368   85.7274   15.5326 O.2     1  UNL1       -0.2701
     24 H          65.1525   85.3957   12.6396 H       1  UNL1        0.1498
     25 C          64.7100   83.6881   13.8984 C.3     1  UNL1        0.1056
     26 N          62.9961   82.1129   12.5844 N.3     1  UNL1       -0.2737
     27 C          61.7159   81.4140   12.9345 C.3     1  UNL1        0.0721
     28 C          61.3962   81.7223   14.3672 C.3     1  UNL1        0.0188
     29 C          62.4789   82.6117   14.9027 C.3     1  UNL1        0.0191
     30 C          63.4677   82.8531   13.8009 C.3     1  UNL1        0.0771
     31 C          63.4177   80.9496   10.2999 C.3     1  UNL1        0.0173
     32 C          63.6840   82.0778   11.2520 C.3     1  UNL1        0.0576
     33 C          64.6382   83.1708   10.8714 C.3     1  UNL1        0.0173
@<TRIPOS>BOND
     1    31    32    1
     2    32    33    1
     3    32    26    1
     4    26    27    1
     5    27    28    1
     6    28    29    1
     7    29    30    1
     8    30    25    1
     9    25    21    1
    10    21    22   am
    11    22    23    2
    12    22     1    1
    13     1     2   ar
    14     2     3   ar
    15     3    16    1
    16    16    17    1
    17    17    18    1
    18    18    19    1
    19    19    20    1
    20     3     4   ar
    21     4     5    2
    22     4     6   ar
    23     6     7   ar
    24     7     8   ar
    25     8     9   ar
    26     9    10   ar
    27    10    11   ar
    28    11    12   ar
    29    12    13   ar
    30    13    14   ar
    31    14    15    1
    32    30    26    1
    33     7     1   ar
    34    13     8   ar
    35    20    16    1
    36    14     6   ar
    37    21    24    1
@<TRIPOS>MOLECULE
*****
 33 37 0 0 0
SMALL
GASTEIGER

@<TRIPOS>ATOM
      1 C          62.4481   88.7379   11.8510 C.ar    1  UNL1        0.0722
      2 C          61.5974   89.0826   10.6646 C.ar    1  UNL1        0.0828
      3 N          61.0942   87.9959    9.7614 N.ar    1  UNL1       -0.2947
      4 C          61.4418   86.5645   10.0446 C.ar    1  UNL1        0.2767
      5 O          60.9386   85.4777    9.1414 O.2     1  UNL1       -0.2654
      6 C          62.2924   86.2198   11.2310 C.ar    1  UNL1        0.1170
      7 C          62.7956   87.3065   12.1342 C.ar    1  UNL1        0.0277
      8 C          63.6090   86.6671   13.2203 C.ar    1  UNL1        0.0175
      9 C          64.3500   87.2429   14.3905 C.ar    1  UNL1        0.0015
     10 C          65.0905   86.3366   15.3287 C.ar    1  UNL1        0.0001
     11 C          65.0901   84.8547   15.0967 C.ar    1  UNL1        0.0015
     12 C          64.3491   84.2790   13.9266 C.ar    1  UNL1        0.0172
     13 C          63.6085   85.1852   12.9883 C.ar    1  UNL1        0.0601
     14 N          62.7949   84.9087   11.7589 N.ar    1  UNL1       -0.3214
     15 C          62.5301   83.5582   11.1621 C.3     1  UNL1        0.1306
     16 C          60.2436   88.3406    8.5750 C.3     1  UNL1        0.0885
     17 C          60.2242   89.6572    7.8566 C.3     1  UNL1        0.0227
     18 C          59.2316   89.5595    6.7363 C.3     1  UNL1        0.0020
     19 C          58.6375   88.1824    6.7622 C.3     1  UNL1        0.0020
     20 C          59.2629   87.4291    7.8986 C.3     1  UNL1        0.0227
     21 N          63.9428   90.8268   12.2416 N.am    1  UNL1       -0.2995
     22 C          62.9512   89.8248   12.7542 C.2     1  UNL1        0.2474
     23 O          62.4628   89.9095   14.1699 O.2     1  UNL1       -0.2701
     24 H          64.2634   90.7712   11.3125 H       1  UNL1        0.1498
     25 C          64.4459   91.9136   13.1449 C.3     1  UNL1        0.1056
     26 N          67.0538   92.3728   12.7802 N.3     1  UNL1       -0.2737
     27 C          68.2882   92.1993   13.6146 C.3     1  UNL1        0.0721
     28 C          67.8753   91.6342   14.9413 C.3     1  UNL1        0.0188
     29 C          66.3857   91.4584   14.9268 C.3     1  UNL1        0.0191
     30 C          65.8780   91.9148   13.5911 C.3     1  UNL1        0.0771
     31 C          67.6872   92.1702   10.2686 C.3     1  UNL1        0.0173
     32 C          67.0040   92.9098   11.3805 C.3     1  UNL1        0.0576
     33 C          66.2711   94.1865   11.0927 C.3     1  UNL1        0.0173
@<TRIPOS>BOND
     1    31    32    1
     2    32    33    1
     3    32    26    1
     4    26    27    1
     5    27    28    1
     6    28    29    1
     7    29    30    1
     8    30    25    1
     9    25    21    1
    10    21    22   am
    11    22    23    2
    12    22     1    1
    13     1     2   ar
    14     2     3   ar
    15     3    16    1
    16    16    17    1
    17    17    18    1
    18    18    19    1
    19    19    20    1
    20     3     4   ar
    21     4     5    2
    22     4     6   ar
    23     6     7   ar
    24     7     8   ar
    25     8     9   ar
    26     9    10   ar
    27    10    11   ar
    28    11    12   ar
    29    12    13   ar
    30    13    14   ar
    31    14    15    1
    32    30    26    1
    33     7     1   ar
    34    13     8   ar
    35    20    16    1
    36    14     6   ar
    37    21    24    1
@<TRIPOS>MOLECULE
*****
 33 37 0 0 0
SMALL
GASTEIGER

@<TRIPOS>ATOM
      1 C          63.7917   91.1867   11.5785 C.ar    1  UNL1        0.0722
      2 C          64.5525   92.0017   10.5749 C.ar    1  UNL1        0.0828
      3 N          65.6882   92.8733   11.0226 N.ar    1  UNL1       -0.2947
      4 C          66.0631   92.9299   12.4739 C.ar    1  UNL1        0.2767
      5 O          67.1988   93.8015   12.9217 O.2     1  UNL1       -0.2654
      6 C          65.3023   92.1150   13.4775 C.ar    1  UNL1        0.1170
      7 C          64.1666   91.2434   13.0297 C.ar    1  UNL1        0.0277
      8 C          63.6037   90.5577   14.2393 C.ar    1  UNL1        0.0175
      9 C          62.4756   89.5834   14.4066 C.ar    1  UNL1        0.0015
     10 C          62.1353   89.0569   15.7693 C.ar    1  UNL1        0.0001
     11 C          62.9231   89.5047   16.9647 C.ar    1  UNL1        0.0015
     12 C          64.0513   90.4790   16.7973 C.ar    1  UNL1        0.0172
     13 C          64.3915   91.0055   15.4346 C.ar    1  UNL1        0.0601
     14 N          65.4413   91.9679   14.9637 N.ar    1  UNL1       -0.3214
     15 C          66.4526   92.6616   15.8276 C.3     1  UNL1        0.1306
     16 C          66.4490   93.6882   10.0191 C.3     1  UNL1        0.0885
     17 C          67.6183   93.2179    9.2058 C.3     1  UNL1        0.0227
     18 C          68.0661   94.3555    8.3367 C.3     1  UNL1        0.0020
     19 C          67.1735   95.5290    8.6130 C.3     1  UNL1        0.0020
     20 C          66.1741   95.1165    9.6528 C.3     1  UNL1        0.0227
     21 N          62.8351   88.8275   11.0595 N.am    1  UNL1       -0.2995
     22 C          62.6559   90.3151   11.1306 C.2     1  UNL1        0.2474
     23 O          61.3412   90.9311   10.7541 O.2     1  UNL1       -0.2701
     24 H          63.6980   88.4232   11.3066 H       1  UNL1        0.1498
     25 C          61.6993   87.9560   10.6117 C.3     1  UNL1        0.1056
     26 N          61.0391   86.7310    8.3295 N.3     1  UNL1       -0.2737
     27 C          61.6272   85.6171    7.5149 C.3     1  UNL1        0.0721
     28 C          62.8666   85.1382    8.2111 C.3     1  UNL1        0.0188
     29 C          63.0445   85.9560    9.4558 C.3     1  UNL1        0.0191
     30 C          61.9150   86.9405    9.5290 C.3     1  UNL1        0.0771
     31 C          58.4877   86.7802    7.8416 C.3     1  UNL1        0.0173
     32 C          59.7938   87.5003    8.0020 C.3     1  UNL1        0.0576
     33 C          59.8544   88.9897    7.8348 C.3     1  UNL1        0.0173
@<TRIPOS>BOND
     1    31    32    1
     2    32    33    1
     3    32    26    1
     4    26    27    1
     5    27    28    1
     6    28    29    1
     7    29    30    1
     8    30    25    1
     9    25    21    1
    10    21    22   am
    11    22    23    2
    12    22     1    1
    13     1     2   ar
    14     2     3   ar
    15     3    16    1
    16    16    17    1
    17    17    18    1
    18    18    19    1
    19    19    20    1
    20     3     4   ar
    21     4     5    2
    22     4     6   ar
    23     6     7   ar
    24     7     8   ar
    25     8     9   ar
    26     9    10   ar
    27    10    11   ar
    28    11    12   ar
    29    12    13   ar
    30    13    14   ar
    31    14    15    1
    32    30    26    1
    33     7     1   ar
    34    13     8   ar
    35    20    16    1
    36    14     6   ar
    37    21    24    1
@<TRIPOS>MOLECULE
*****
 33 37 0 0 0
SMALL
GASTEIGER

@<TRIPOS>ATOM
      1 C          63.8933   91.1651   11.6542 C.ar    1  UNL1        0.0722
      2 C          64.6135   92.0289   10.6616 C.ar    1  UNL1        0.0828
      3 N          65.6606   92.9957   11.1293 N.ar    1  UNL1       -0.2947
      4 C          65.9875   93.0988   12.5896 C.ar    1  UNL1        0.2767
      5 O          67.0346   94.0656   13.0573 O.2     1  UNL1       -0.2654
      6 C          65.2674   92.2350   13.5821 C.ar    1  UNL1        0.1170
      7 C          64.2202   91.2681   13.1144 C.ar    1  UNL1        0.0277
      8 C          63.6807   90.5516   14.3167 C.ar    1  UNL1        0.0175
      9 C          62.6318   89.4897   14.4654 C.ar    1  UNL1        0.0015
     10 C          62.2966   88.9518   15.8249 C.ar    1  UNL1        0.0001
     11 C          63.0103   89.4758   17.0357 C.ar    1  UNL1        0.0015
     12 C          64.0592   90.5377   16.8871 C.ar    1  UNL1        0.0172
     13 C          64.3944   91.0756   15.5276 C.ar    1  UNL1        0.0601
     14 N          65.3750   92.1160   15.0735 N.ar    1  UNL1       -0.3214
     15 C          66.3007   92.8997   15.9560 C.3     1  UNL1        0.1306
     16 C          66.3808   93.8596   10.1367 C.3     1  UNL1        0.0885
     17 C          66.0856   95.3009    9.8444 C.3     1  UNL1        0.0227
     18 C          67.0449   95.7658    8.7892 C.3     1  UNL1        0.0020
     19 C          67.9330   94.6118    8.4294 C.3     1  UNL1        0.0020
     20 C          67.5226   93.4337    9.2621 C.3     1  UNL1        0.0227
     21 N          62.9943   88.7339   11.4763 N.am    1  UNL1       -0.2995
     22 C          62.8462   90.1982   11.1864 C.2     1  UNL1        0.2474
     23 O          61.6511   90.6956   10.4287 O.2     1  UNL1       -0.2701
     24 H          63.7787   88.4075   11.9737 H       1  UNL1        0.1498
     25 C          61.9472   87.7672   11.0086 C.3     1  UNL1        0.1056
     26 N          62.8069   85.2522   10.7245 N.3     1  UNL1       -0.2737
     27 C          63.0914   84.3539    9.5574 C.3     1  UNL1        0.0721
     28 C          62.8009   85.1202    8.3011 C.3     1  UNL1        0.0188
     29 C          62.3370   86.4921    8.6917 C.3     1  UNL1        0.0191
     30 C          62.3406   86.5737   10.1896 C.3     1  UNL1        0.0771
     31 C          62.5477   83.5338   12.6558 C.3     1  UNL1        0.0173
     32 C          62.9615   84.8921   12.1724 C.3     1  UNL1        0.0576
     33 C          63.5300   85.8903   13.1370 C.3     1  UNL1        0.0173
@<TRIPOS>BOND
     1    31    32    1
     2    32    33    1
     3    32    26    1
     4    26    27    1
     5    27    28    1
     6    28    29    1
     7    29    30    1
     8    30    25    1
     9    25    21    1
    10    21    22   am
    11    22    23    2
    12    22     1    1
    13     1     2   ar
    14     2     3   ar
    15     3    16    1
    16    16    17    1
    17    17    18    1
    18    18    19    1
    19    19    20    1
    20     3     4   ar
    21     4     5    2
    22     4     6   ar
    23     6     7   ar
    24     7     8   ar
    25     8     9   ar
    26     9    10   ar
    27    10    11   ar
    28    11    12   ar
    29    12    13   ar
    30    13    14   ar
    31    14    15    1
    32    30    26    1
    33     7     1   ar
    34    13     8   ar
    35    20    16    1
    36    14     6   ar
    37    21    24    1
@<TRIPOS>MOLECULE
*****
 33 37 0 0 0
SMALL
GASTEIGER

@<TRIPOS>ATOM
      1 C          62.4076   88.3548   11.9328 C.ar    1  UNL1        0.0722
      2 C          61.5705   88.7762   10.7616 C.ar    1  UNL1        0.0828
      3 N          61.0998   87.7541    9.7697 N.ar    1  UNL1       -0.2947
      4 C          61.4663   86.3107    9.9491 C.ar    1  UNL1        0.2767
      5 O          60.9956   85.2886    8.9572 O.2     1  UNL1       -0.2654
      6 C          62.3034   85.8893   11.1203 C.ar    1  UNL1        0.1170
      7 C          62.7741   86.9114   12.1121 C.ar    1  UNL1        0.0277
      8 C          63.5804   86.2033   13.1602 C.ar    1  UNL1        0.0175
      9 C          64.2930   86.6991   14.3834 C.ar    1  UNL1        0.0015
     10 C          65.0332   85.7352   15.2625 C.ar    1  UNL1        0.0001
     11 C          65.0609   84.2755   14.9184 C.ar    1  UNL1        0.0015
     12 C          64.3483   83.7797   13.6952 C.ar    1  UNL1        0.0172
     13 C          63.6081   84.7436   12.8161 C.ar    1  UNL1        0.0601
     14 N          62.8188   84.5495   11.5553 N.ar    1  UNL1       -0.3214
     15 C          62.5860   83.2447   10.8530 C.3     1  UNL1        0.1306
     16 C          60.2627   88.1754    8.5985 C.3     1  UNL1        0.0885
     17 C          59.2932   87.3091    7.8506 C.3     1  UNL1        0.0227
     18 C          58.6794   88.1353    6.7595 C.3     1  UNL1        0.0020
     19 C          59.2695   89.5124    6.8331 C.3     1  UNL1        0.0020
     20 C          60.2481   89.5372    7.9697 C.3     1  UNL1        0.0227
     21 N          64.2693   89.9299   12.8290 N.am    1  UNL1       -0.2995
     22 C          62.8782   89.3770   12.9247 C.2     1  UNL1        0.2474
     23 O          61.9579   89.8460   14.0122 O.2     1  UNL1       -0.2701
     24 H          64.8734   89.6220   12.1152 H       1  UNL1        0.1498
     25 C          64.7399   90.9520   13.8208 C.3     1  UNL1        0.1056
     26 N          66.2723   93.1157   14.1608 N.3     1  UNL1       -0.2737
     27 C          66.7077   94.2549   13.2876 C.3     1  UNL1        0.0721
     28 C          66.0997   94.0575   11.9306 C.3     1  UNL1        0.0188
     29 C          65.2886   92.7962   11.9652 C.3     1  UNL1        0.0191
     30 C          65.3952   92.2141   13.3436 C.3     1  UNL1        0.0771
     31 C          65.5848   92.6365   16.6200 C.3     1  UNL1        0.0173
     32 C          66.6480   92.9135   15.5988 C.3     1  UNL1        0.0576
     33 C          68.0869   92.9882   16.0158 C.3     1  UNL1        0.0173
@<TRIPOS>BOND
     1    31    32    1
     2    32    33    1
     3    32    26    1
     4    26    27    1
     5    27    28    1
     6    28    29    1
     7    29    30    1
     8    30    25    1
     9    25    21    1
    10    21    22   am
    11    22    23    2
    12    22     1    1
    13     1     2   ar
    14     2     3   ar
    15     3    16    1
    16    16    17    1
    17    17    18    1
    18    18    19    1
    19    19    20    1
    20     3     4   ar
    21     4     5    2
    22     4     6   ar
    23     6     7   ar
    24     7     8   ar
    25     8     9   ar
    26     9    10   ar
    27    10    11   ar
    28    11    12   ar
    29    12    13   ar
    30    13    14   ar
    31    14    15    1
    32    30    26    1
    33     7     1   ar
    34    13     8   ar
    35    20    16    1
    36    14     6   ar
    37    21    24    1
@<TRIPOS>MOLECULE
*****
 33 37 0 0 0
SMALL
GASTEIGER

@<TRIPOS>ATOM
      1 C          62.8641   86.2038   11.9234 C.ar    1  UNL1        0.0722
      2 C          63.1188   87.5492   12.5360 C.ar    1  UNL1        0.0828
      3 N          63.7302   87.6476   13.9022 N.ar    1  UNL1       -0.2947
      4 C          64.0868   86.4007   14.6559 C.ar    1  UNL1        0.2767
      5 O          64.6982   86.4991   16.0221 O.2     1  UNL1       -0.2654
      6 C          63.8321   85.0553   14.0433 C.ar    1  UNL1        0.1170
      7 C          63.2208   84.9569   12.6771 C.ar    1  UNL1        0.0277
      8 C          63.0878   83.5031   12.3323 C.ar    1  UNL1        0.0175
      9 C          62.5532   82.8045   11.1174 C.ar    1  UNL1        0.0015
     10 C          62.5479   81.3058   11.0556 C.ar    1  UNL1        0.0001
     11 C          63.0771   80.5058   12.2088 C.ar    1  UNL1        0.0015
     12 C          63.6116   81.2043   13.4237 C.ar    1  UNL1        0.0172
     13 C          63.6170   82.7030   13.4855 C.ar    1  UNL1        0.0601
     14 N          64.0770   83.6624   14.5429 N.ar    1  UNL1       -0.3214
     15 C          64.6766   83.2934   15.8674 C.3     1  UNL1        0.1306
     16 C          63.9849   88.9929   14.5148 C.3     1  UNL1        0.0885
     17 C          63.3777   89.5130   15.7839 C.3     1  UNL1        0.0227
     18 C          63.9090   90.8959   16.0193 C.3     1  UNL1        0.0020
     19 C          64.8446   91.2304   14.8956 C.3     1  UNL1        0.0020
     20 C          64.8915   90.0543   13.9657 C.3     1  UNL1        0.0227
     21 N          60.8459   86.5735   10.3296 N.am    1  UNL1       -0.2995
     22 C          62.2527   86.1054   10.5571 C.2     1  UNL1        0.2474
     23 O          63.0482   85.5391    9.4186 O.2     1  UNL1       -0.2701
     24 H          60.3238   86.9452   11.0769 H       1  UNL1        0.1498
     25 C          60.2346   86.4751    8.9633 C.3     1  UNL1        0.1056
     26 N          60.1812   89.1281    8.6417 N.3     1  UNL1       -0.2737
     27 C          59.6952   90.0569    7.5688 C.3     1  UNL1        0.0721
     28 C          59.1230   89.2249    6.4596 C.3     1  UNL1        0.0188
     29 C          59.2554   87.7818    6.8470 C.3     1  UNL1        0.0191
     30 C          59.9094   87.7220    8.1956 C.3     1  UNL1        0.0771
     31 C          59.9957   89.6712   11.1756 C.3     1  UNL1        0.0173
     32 C          60.8259   89.5341    9.9338 C.3     1  UNL1        0.0576
     33 C          62.3007   89.8031    9.9842 C.3     1  UNL1        0.0173
@<TRIPOS>BOND
     1    31    32    1
     2    32    33    1
     3    32    26    1
     4    26    27    1
     5    27    28    1
     6    28    29    1
     7    29    30    1
     8    30    25    1
     9    25    21    1
    10    21    22   am
    11    22    23    2
    12    22     1    1
    13     1     2   ar
    14     2     3   ar
    15     3    16    1
    16    16    17    1
    17    17    18    1
    18    18    19    1
    19    19    20    1
    20     3     4   ar
    21     4     5    2
    22     4     6   ar
    23     6     7   ar
    24     7     8   ar
    25     8     9   ar
    26     9    10   ar
    27    10    11   ar
    28    11    12   ar
    29    12    13   ar
    30    13    14   ar
    31    14    15    1
    32    30    26    1
    33     7     1   ar
    34    13     8   ar
    35    20    16    1
    36    14     6   ar
    37    21    24    1
@<TRIPOS>MOLECULE
*****
 33 37 0 0 0
SMALL
GASTEIGER

@<TRIPOS>ATOM
      1 C          64.6218   89.9653   14.1273 C.ar    1  UNL1        0.0722
      2 C          65.7304   90.5924   14.9195 C.ar    1  UNL1        0.0828
      3 N          66.4477   91.7958   14.3833 N.ar    1  UNL1       -0.2947
      4 C          66.0563   92.3719   13.0548 C.ar    1  UNL1        0.2767
      5 O          66.7735   93.5752   12.5186 O.2     1  UNL1       -0.2654
      6 C          64.9476   91.7448   12.2626 C.ar    1  UNL1        0.1170
      7 C          64.2303   90.5415   12.7989 C.ar    1  UNL1        0.0277
      8 C          63.1850   90.1416   11.8001 C.ar    1  UNL1        0.0175
      9 C          62.1776   89.0304   11.7921 C.ar    1  UNL1        0.0015
     10 C          61.2413   88.8753   10.6305 C.ar    1  UNL1        0.0001
     11 C          61.3125   89.8315    9.4770 C.ar    1  UNL1        0.0015
     12 C          62.3200   90.9428    9.4850 C.ar    1  UNL1        0.0172
     13 C          63.2562   91.0978   10.6466 C.ar    1  UNL1        0.0601
     14 N          64.3455   92.0886   10.9325 N.ar    1  UNL1       -0.3214
     15 C          64.7600   93.2239   10.0441 C.3     1  UNL1        0.1306
     16 C          67.5563   92.4229   15.1755 C.3     1  UNL1        0.0885
     17 C          68.6571   91.6907   15.8841 C.3     1  UNL1        0.0227
     18 C          69.5399   92.7076   16.5447 C.3     1  UNL1        0.0020
     19 C          68.9848   94.0683   16.2444 C.3     1  UNL1        0.0020
     20 C          67.7589   93.8924   15.3981 C.3     1  UNL1        0.0227
     21 N          64.0338   87.4396   13.9673 N.am    1  UNL1       -0.2995
     22 C          63.9045   88.7619   14.6636 C.2     1  UNL1        0.2474
     23 O          63.0581   88.8809   15.8961 O.2     1  UNL1       -0.2701
     24 H          64.5894   87.3616   13.1583 H       1  UNL1        0.1498
     25 C          63.3166   86.2363   14.5036 C.3     1  UNL1        0.1056
     26 N          63.5609   84.2078   12.7801 N.3     1  UNL1       -0.2737
     27 C          64.1701   82.8381   12.8336 C.3     1  UNL1        0.0721
     28 C          64.7534   82.6433   14.2017 C.3     1  UNL1        0.0188
     29 C          64.5047   83.8925   14.9938 C.3     1  UNL1        0.0191
     30 C          63.7676   84.8595   14.1152 C.3     1  UNL1        0.0771
     31 C          61.6761   85.7071   11.8057 C.3     1  UNL1        0.0173
     32 C          62.8667   84.8186   11.5990 C.3     1  UNL1        0.0576
     33 C          63.3632   84.5408   10.2111 C.3     1  UNL1        0.0173
@<TRIPOS>BOND
     1    31    32    1
     2    32    33    1
     3    32    26    1
     4    26    27    1
     5    27    28    1
     6    28    29    1
     7    29    30    1
     8    30    25    1
     9    25    21    1
    10    21    22   am
    11    22    23    2
    12    22     1    1
    13     1     2   ar
    14     2     3   ar
    15     3    16    1
    16    16    17    1
    17    17    18    1
    18    18    19    1
    19    19    20    1
    20     3     4   ar
    21     4     5    2
    22     4     6   ar
    23     6     7   ar
    24     7     8   ar
    25     8     9   ar
    26     9    10   ar
    27    10    11   ar
    28    11    12   ar
    29    12    13   ar
    30    13    14   ar
    31    14    15    1
    32    30    26    1
    33     7     1   ar
    34    13     8   ar
    35    20    16    1
    36    14     6   ar
    37    21    24    1
@<TRIPOS>MOLECULE
*****
 33 37 0 0 0
SMALL
GASTEIGER

@<TRIPOS>ATOM
      1 C          63.3501   86.7946   13.2274 C.ar    1  UNL1        0.0722
      2 C          63.5538   85.3701   13.6512 C.ar    1  UNL1        0.0828
      3 N          63.0558   84.2514   12.7850 N.ar    1  UNL1       -0.2947
      4 C          62.3541   84.5571   11.4950 C.ar    1  UNL1        0.2767
      5 O          61.8561   83.4383   10.6287 O.2     1  UNL1       -0.2654
      6 C          62.1504   85.9815   11.0712 C.ar    1  UNL1        0.1170
      7 C          62.6484   87.1002   11.9374 C.ar    1  UNL1        0.0277
      8 C          62.3051   88.3959   11.2641 C.ar    1  UNL1        0.0175
      9 C          62.5475   89.8242   11.6530 C.ar    1  UNL1        0.0015
     10 C          62.0796   90.9345   10.7596 C.ar    1  UNL1        0.0001
     11 C          61.3694   90.6165    9.4772 C.ar    1  UNL1        0.0015
     12 C          61.1271   89.1882    9.0883 C.ar    1  UNL1        0.0172
     13 C          61.5949   88.0780    9.9817 C.ar    1  UNL1        0.0601
     14 N          61.4993   86.5858    9.8625 N.ar    1  UNL1       -0.3214
     15 C          60.8641   85.8305    8.7329 C.3     1  UNL1        0.1306
     16 C          63.2595   82.8270   13.2087 C.3     1  UNL1        0.0885
     17 C          64.5412   82.0535   13.1137 C.3     1  UNL1        0.0227
     18 C          64.2912   80.6745   13.6481 C.3     1  UNL1        0.0020
     19 C          62.8549   80.5956   14.0735 C.3     1  UNL1        0.0020
     20 C          62.2173   81.9259   13.8020 C.3     1  UNL1        0.0227
     21 N          64.3991   89.1595   13.4663 N.am    1  UNL1       -0.2995
     22 C          63.8482   87.9133   14.0937 C.2     1  UNL1        0.2474
     23 O          63.7953   87.7859   15.5873 O.2     1  UNL1       -0.2701
     24 H          64.4338   89.2431   12.4860 H       1  UNL1        0.1498
     25 C          64.8971   90.2782   14.3326 C.3     1  UNL1        0.1056
     26 N          66.0919   92.6680   14.4124 N.3     1  UNL1       -0.2737
     27 C          66.3774   93.7451   13.4083 C.3     1  UNL1        0.0721
     28 C          65.8354   93.2987   12.0828 C.3     1  UNL1        0.0188
     29 C          65.2149   91.9456   12.2677 C.3     1  UNL1        0.0191
     30 C          65.3734   91.5558   13.7075 C.3     1  UNL1        0.0771
     31 C          65.3901   92.6028   16.9130 C.3     1  UNL1        0.0173
     32 C          66.4602   92.6977   15.8661 C.3     1  UNL1        0.0576
     33 C          67.8985   92.8224   16.2731 C.3     1  UNL1        0.0173
@<TRIPOS>BOND
     1    31    32    1
     2    32    33    1
     3    32    26    1
     4    26    27    1
     5    27    28    1
     6    28    29    1
     7    29    30    1
     8    30    25    1
     9    25    21    1
    10    21    22   am
    11    22    23    2
    12    22     1    1
    13     1     2   ar
    14     2     3   ar
    15     3    16    1
    16    16    17    1
    17    17    18    1
    18    18    19    1
    19    19    20    1
    20     3     4   ar
    21     4     5    2
    22     4     6   ar
    23     6     7   ar
    24     7     8   ar
    25     8     9   ar
    26     9    10   ar
    27    10    11   ar
    28    11    12   ar
    29    12    13   ar
    30    13    14   ar
    31    14    15    1
    32    30    26    1
    33     7     1   ar
    34    13     8   ar
    35    20    16    1
    36    14     6   ar
    37    21    24    1
