@<TRIPOS>MOLECULE
*****
 43 45 0 0 0
SMALL
GASTEIGER

@<TRIPOS>ATOM
      1 C          63.8352   86.8481   13.7928 C.2     1  UNL1        0.2411
      2 O          64.8427   86.5091   14.8511 O.2     1  UNL1       -0.2733
      3 N          63.5486   88.2829   13.4623 N.am    1  UNL1       -0.2966
      4 H          62.8873   88.5054   12.7677 H       1  UNL1        0.1499
      5 C          63.1143   85.7524   13.0649 C.3     1  UNL1        0.1554
      6 C          62.6229   83.6814   14.5549 C.2     1  UNL1        0.4017
      7 O          61.6157   84.4781   15.3300 O.2     1  UNL1       -0.2264
      8 N          63.3723   84.3186   13.4223 N.am    1  UNL1       -0.2637
      9 H          64.0333   83.7957   12.9135 H       1  UNL1        0.1532
     10 O          62.8808   82.2477   14.9122 O.3     1  UNL1       -0.4419
     11 C          61.1655   81.2182   14.2069 C.3     1  UNL1        0.0437
     12 C          62.6332   81.1668   13.9021 C.3     1  UNL1        0.1378
     13 C          64.1010   81.1153   13.5974 C.3     1  UNL1        0.0437
     14 C          62.3856   80.0858   12.8920 C.3     1  UNL1        0.0437
     15 C          62.1356   86.0904   11.9797 C.3     1  UNL1        0.0553
     16 C          62.4002   85.6551   10.5688 C.ar    1  UNL1       -0.0161
     17 C          63.2121   84.4220   10.3042 C.ar    1  UNL1       -0.0042
     18 C          63.4767   83.9868    8.8933 C.ar    1  UNL1       -0.0003
     19 C          62.9292   84.7846    7.7471 C.ar    1  UNL1       -0.0001
     20 C          62.1172   86.0177    8.0118 C.ar    1  UNL1        0.0035
     21 C          61.8527   86.4530    9.4226 C.ar    1  UNL1        0.0675
     22 C          61.0407   87.6861    9.6873 C.3     1  UNL1        0.4183
     23 F          60.2288   88.9193    9.9520 F       1  UNL1       -0.1659
     24 F          62.2978   88.5028    9.7390 F       1  UNL1       -0.1659
     25 F          59.7836   86.8695    9.6357 F       1  UNL1       -0.1659
     26 C          64.2694   89.3786   14.1901 C.3     1  UNL1        0.1543
     27 C          64.6943   90.6147   13.4541 C.ar    1  UNL1        0.1417
     28 N          64.3177   90.9769   12.0481 N.ar    1  UNL1       -0.2276
     29 C          64.9610   92.2916   11.7199 C.ar    1  UNL1        0.1167
     30 C          64.9419   93.1369   10.4809 C.ar    1  UNL1        0.0238
     31 C          65.6969   94.4325   10.4452 C.ar    1  UNL1        0.0223
     32 C          66.4710   94.8828   11.6485 C.ar    1  UNL1        0.1006
     33 N          66.4902   94.0376   12.8875 N.ar    1  UNL1       -0.2252
     34 C          65.7352   92.7420   12.9232 C.ar    1  UNL1        0.1626
     35 N          65.5703   91.7056   13.9950 N.ar    1  UNL1       -0.2930
     36 C          66.1752   91.7520   15.3668 C.3     1  UNL1        0.1839
     37 C          67.4460   92.5136   15.6008 C.3     1  UNL1        0.3693
     38 F          68.1708   91.5920   14.6652 F       1  UNL1       -0.1930
     39 F          66.7213   93.4354   16.5364 F       1  UNL1       -0.1930
     40 C          68.7169   93.2754   15.8348 C.3     1  UNL1        0.4565
     41 F          69.9877   94.0372   16.0688 F       1  UNL1       -0.1649
     42 F          69.4523   91.9846   16.0430 F       1  UNL1       -0.1649
     43 F          67.9815   94.5661   15.6266 F       1  UNL1       -0.1649
@<TRIPOS>BOND
     1    11    12    1
     2    12    13    1
     3    12    14    1
     4    12    10    1
     5    10     6    1
     6     6     7    2
     7     6     8   am
     8     8     5    1
     9     5    15    1
    10    15    16    1
    11    16    17   ar
    12    17    18   ar
    13    18    19   ar
    14    19    20   ar
    15    20    21   ar
    16    21    22    1
    17    22    23    1
    18    22    24    1
    19    22    25    1
    20     5     1    1
    21     1     2    2
    22     1     3   am
    23     3    26    1
    24    26    27    1
    25    27    28   ar
    26    28    29   ar
    27    29    30   ar
    28    30    31   ar
    29    31    32   ar
    30    32    33   ar
    31    33    34   ar
    32    34    35   ar
    33    35    36    1
    34    36    37    1
    35    37    38    1
    36    37    39    1
    37    37    40    1
    38    40    41    1
    39    40    42    1
    40    40    43    1
    41    21    16   ar
    42    35    27   ar
    43    34    29   ar
    44     8     9    1
    45     3     4    1
@<TRIPOS>MOLECULE
*****
 43 45 0 0 0
SMALL
GASTEIGER

@<TRIPOS>ATOM
      1 C          63.5080   86.9058   13.3849 C.2     1  UNL1        0.2411
      2 O          64.2589   86.6937   14.6660 O.2     1  UNL1       -0.2733
      3 N          63.2071   88.2976   12.9135 N.am    1  UNL1       -0.2966
      4 H          62.7143   88.4368   12.0727 H       1  UNL1        0.1499
      5 C          63.0580   85.7260   12.5751 C.3     1  UNL1        0.1554
      6 C          61.5753   86.4725   10.5765 C.2     1  UNL1        0.4017
      7 O          62.7553   87.1626    9.9589 O.2     1  UNL1       -0.2264
      8 N          61.7267   85.7541   11.8846 N.am    1  UNL1       -0.2637
      9 H          60.9523   85.3011   12.2900 H       1  UNL1        0.1532
     10 O          60.2440   86.5006    9.8860 O.3     1  UNL1       -0.4419
     11 C          59.9331   86.5161    7.7877 C.3     1  UNL1        0.0437
     12 C          59.9510   87.5597    8.8650 C.3     1  UNL1        0.1378
     13 C          59.9689   88.6032    9.9423 C.3     1  UNL1        0.0437
     14 C          59.6580   88.6187    7.8439 C.3     1  UNL1        0.0437
     15 C          63.9394   84.5181   12.4559 C.3     1  UNL1        0.0553
     16 C          63.3630   83.1469   12.6504 C.ar    1  UNL1       -0.0161
     17 C          63.2905   82.1930   11.4951 C.ar    1  UNL1       -0.0042
     18 C          62.7141   80.8219   11.6897 C.ar    1  UNL1       -0.0003
     19 C          62.2102   80.4048   13.0395 C.ar    1  UNL1       -0.0001
     20 C          62.2828   81.3587   14.1948 C.ar    1  UNL1        0.0035
     21 C          62.8591   82.7298   14.0003 C.ar    1  UNL1        0.0675
     22 C          62.9317   83.6838   15.1556 C.3     1  UNL1        0.4183
     23 F          63.0042   84.6377   16.3108 F       1  UNL1       -0.1659
     24 F          61.5373   84.1498   14.8583 F       1  UNL1       -0.1659
     25 F          64.3261   83.2178   15.4529 F       1  UNL1       -0.1659
     26 C          63.6571   89.4774   13.7232 C.3     1  UNL1        0.1543
     27 C          64.2821   90.6593   13.0432 C.ar    1  UNL1        0.1417
     28 N          63.9607   91.1550   11.6645 N.ar    1  UNL1       -0.2276
     29 C          64.8183   92.3551   11.3917 C.ar    1  UNL1        0.1167
     30 C          64.9338   93.2556   10.1977 C.ar    1  UNL1        0.0238
     31 C          65.9008   94.4022   10.2139 C.ar    1  UNL1        0.0223
     32 C          66.7523   94.6482   11.4241 C.ar    1  UNL1        0.1006
     33 N          66.6367   93.7476   12.6181 N.ar    1  UNL1       -0.2252
     34 C          65.6697   92.6011   12.6019 C.ar    1  UNL1        0.1626
     35 N          65.3384   91.5530   13.6226 N.ar    1  UNL1       -0.2930
     36 C          65.9550   91.4218   14.9836 C.3     1  UNL1        0.1839
     37 C          67.1222   92.2833   15.3645 C.3     1  UNL1        0.3693
     38 F          66.2303   93.0992   16.2526 F       1  UNL1       -0.1930
     39 F          68.0143   91.4674   14.4764 F       1  UNL1       -0.1930
     40 C          68.2895   93.1449   15.7454 C.3     1  UNL1        0.4565
     41 F          69.4569   94.0066   16.1262 F       1  UNL1       -0.1649
     42 F          69.0367   91.9288   16.2068 F       1  UNL1       -0.1649
     43 F          67.5425   94.3610   15.2839 F       1  UNL1       -0.1649
@<TRIPOS>BOND
     1    11    12    1
     2    12    13    1
     3    12    14    1
     4    12    10    1
     5    10     6    1
     6     6     7    2
     7     6     8   am
     8     8     5    1
     9     5    15    1
    10    15    16    1
    11    16    17   ar
    12    17    18   ar
    13    18    19   ar
    14    19    20   ar
    15    20    21   ar
    16    21    22    1
    17    22    23    1
    18    22    24    1
    19    22    25    1
    20     5     1    1
    21     1     2    2
    22     1     3   am
    23     3    26    1
    24    26    27    1
    25    27    28   ar
    26    28    29   ar
    27    29    30   ar
    28    30    31   ar
    29    31    32   ar
    30    32    33   ar
    31    33    34   ar
    32    34    35   ar
    33    35    36    1
    34    36    37    1
    35    37    38    1
    36    37    39    1
    37    37    40    1
    38    40    41    1
    39    40    42    1
    40    40    43    1
    41    21    16   ar
    42    35    27   ar
    43    34    29   ar
    44     8     9    1
    45     3     4    1
@<TRIPOS>MOLECULE
*****
 43 45 0 0 0
SMALL
GASTEIGER

@<TRIPOS>ATOM
      1 C          62.1512   88.9857   11.8445 C.2     1  UNL1        0.2411
      2 O          61.2591   89.6683   12.8385 O.2     1  UNL1       -0.2733
      3 N          63.2333   89.7600   11.1521 N.am    1  UNL1       -0.2966
      4 H          63.8188   89.3119   10.4997 H       1  UNL1        0.1499
      5 C          61.9611   87.5286   11.5428 C.3     1  UNL1        0.1554
      6 C          63.6819   86.9203   13.3918 C.2     1  UNL1        0.4017
      7 O          63.8329   88.3740   13.7295 O.2     1  UNL1       -0.2264
      8 N          62.7460   86.4977   12.2984 N.am    1  UNL1       -0.2637
      9 H          62.6468   85.5436   12.0768 H       1  UNL1        0.1532
     10 O          64.4668   85.8894   14.1475 O.3     1  UNL1       -0.4419
     11 C          64.2019   83.8748   13.5383 C.3     1  UNL1        0.0437
     12 C          63.7721   84.6903   14.7216 C.3     1  UNL1        0.1378
     13 C          63.3424   85.5058   15.9048 C.3     1  UNL1        0.0437
     14 C          63.0775   83.4911   15.2957 C.3     1  UNL1        0.0437
     15 C          60.9862   87.1026   10.4854 C.3     1  UNL1        0.0553
     16 C          61.4566   86.2916    9.3144 C.ar    1  UNL1       -0.0161
     17 C          62.6420   85.3840    9.4585 C.ar    1  UNL1       -0.0042
     18 C          63.1124   84.5730    8.2876 C.ar    1  UNL1       -0.0003
     19 C          62.3973   84.6698    6.9726 C.ar    1  UNL1       -0.0001
     20 C          61.2119   85.5775    6.8285 C.ar    1  UNL1        0.0035
     21 C          60.7415   86.3884    7.9994 C.ar    1  UNL1        0.0675
     22 C          59.5560   87.2961    7.8553 C.3     1  UNL1        0.4183
     23 F          58.3706   88.2038    7.7113 F       1  UNL1       -0.1659
     24 F          58.6557   86.1019    7.7401 F       1  UNL1       -0.1659
     25 F          60.4563   88.4903    7.9705 F       1  UNL1       -0.1659
     26 C          63.4234   91.2170   11.4538 C.3     1  UNL1        0.1543
     27 C          64.4474   91.6468   12.4620 C.ar    1  UNL1        0.1417
     28 N          64.2855   91.6125   13.9529 N.ar    1  UNL1       -0.2276
     29 C          65.5512   92.1308   14.5687 C.ar    1  UNL1        0.1167
     30 C          65.9659   92.3257   15.9970 C.ar    1  UNL1        0.0238
     31 C          67.3248   92.8752   16.3151 C.ar    1  UNL1        0.0223
     32 C          68.2691   93.2299   15.2049 C.ar    1  UNL1        0.1006
     33 N          67.8544   93.0350   13.7766 N.ar    1  UNL1       -0.2252
     34 C          66.4954   92.4855   13.4585 C.ar    1  UNL1        0.1626
     35 N          65.8133   92.1863   12.1565 N.ar    1  UNL1       -0.2930
     36 C          66.3949   92.3908   10.7891 C.3     1  UNL1        0.1839
     37 C          66.7473   93.7722   10.3228 C.3     1  UNL1        0.3693
     38 F          65.4316   94.2803   10.8334 F       1  UNL1       -0.1930
     39 F          68.0631   93.2641    9.8122 F       1  UNL1       -0.1930
     40 C          67.0998   95.1536    9.8565 C.3     1  UNL1        0.4565
     41 F          67.4523   96.5351    9.3902 F       1  UNL1       -0.1649
     42 F          68.3870   94.6334    9.2884 F       1  UNL1       -0.1649
     43 F          65.8127   95.6738   10.4246 F       1  UNL1       -0.1649
@<TRIPOS>BOND
     1    11    12    1
     2    12    13    1
     3    12    14    1
     4    12    10    1
     5    10     6    1
     6     6     7    2
     7     6     8   am
     8     8     5    1
     9     5    15    1
    10    15    16    1
    11    16    17   ar
    12    17    18   ar
    13    18    19   ar
    14    19    20   ar
    15    20    21   ar
    16    21    22    1
    17    22    23    1
    18    22    24    1
    19    22    25    1
    20     5     1    1
    21     1     2    2
    22     1     3   am
    23     3    26    1
    24    26    27    1
    25    27    28   ar
    26    28    29   ar
    27    29    30   ar
    28    30    31   ar
    29    31    32   ar
    30    32    33   ar
    31    33    34   ar
    32    34    35   ar
    33    35    36    1
    34    36    37    1
    35    37    38    1
    36    37    39    1
    37    37    40    1
    38    40    41    1
    39    40    42    1
    40    40    43    1
    41    21    16   ar
    42    35    27   ar
    43    34    29   ar
    44     8     9    1
    45     3     4    1
@<TRIPOS>MOLECULE
*****
 43 45 0 0 0
SMALL
GASTEIGER

@<TRIPOS>ATOM
      1 C          63.6333   88.2588   15.4886 C.2     1  UNL1        0.2411
      2 O          63.1462   88.2534   16.9073 O.2     1  UNL1       -0.2733
      3 N          63.8868   86.9625   14.7777 N.am    1  UNL1       -0.2966
      4 H          64.2065   86.9661   13.8466 H       1  UNL1        0.1499
      5 C          63.8669   89.5606   14.7808 C.3     1  UNL1        0.1554
      6 C          62.3299   89.7442   12.6942 C.2     1  UNL1        0.4017
      7 O          63.0468   88.5869   12.0643 O.2     1  UNL1       -0.2264
      8 N          62.7400   90.2310   14.0525 N.am    1  UNL1       -0.2637
      9 H          62.2695   90.9906   14.4659 H       1  UNL1        0.1532
     10 O          61.2030   90.4146   11.9659 O.3     1  UNL1       -0.4419
     11 C          61.8695   90.4567    9.9525 C.3     1  UNL1        0.0437
     12 C          60.7032   89.8458   10.6710 C.3     1  UNL1        0.1378
     13 C          59.5369   89.2349   11.3896 C.3     1  UNL1        0.0437
     14 C          60.2034   89.2770    9.3761 C.3     1  UNL1        0.0437
     15 C          65.2275   90.1918   14.8014 C.3     1  UNL1        0.0553
     16 C          65.5171   91.3781   13.9302 C.ar    1  UNL1       -0.0161
     17 C          64.8314   91.5198   12.6037 C.ar    1  UNL1       -0.0042
     18 C          65.1210   92.7061   11.7327 C.ar    1  UNL1       -0.0003
     19 C          66.0965   93.7507   12.1881 C.ar    1  UNL1       -0.0001
     20 C          66.7822   93.6090   13.5146 C.ar    1  UNL1        0.0035
     21 C          66.4925   92.4227   14.3857 C.ar    1  UNL1        0.0675
     22 C          67.1783   92.2810   15.7122 C.3     1  UNL1        0.4183
     23 F          67.8641   92.1392   17.0387 F       1  UNL1       -0.1659
     24 F          68.3877   91.7175   15.0268 F       1  UNL1       -0.1659
     25 F          65.9690   92.8444   16.3977 F       1  UNL1       -0.1659
     26 C          63.6532   85.6608   15.4855 C.3     1  UNL1        0.1543
     27 C          63.4121   84.4096   14.6941 C.ar    1  UNL1        0.1417
     28 N          63.2389   83.0300   15.2569 N.ar    1  UNL1       -0.2276
     29 C          63.0217   82.0860   14.1117 C.ar    1  UNL1        0.1167
     30 C          62.7935   80.6043   14.0617 C.ar    1  UNL1        0.0238
     31 C          62.6042   79.9188   12.7410 C.ar    1  UNL1        0.0223
     32 C          62.6432   80.7149   11.4703 C.ar    1  UNL1        0.1006
     33 N          62.8714   82.1966   11.5203 N.ar    1  UNL1       -0.2252
     34 C          63.0607   82.8821   12.8410 C.ar    1  UNL1        0.1626
     35 N          63.3020   84.3182   13.2010 N.ar    1  UNL1       -0.2930
     36 C          63.4135   85.4620   12.2370 C.3     1  UNL1        0.1839
     37 C          62.4873   85.5440   11.0600 C.3     1  UNL1        0.3693
     38 F          63.5527   84.9595   10.1808 F       1  UNL1       -0.1930
     39 F          61.4218   86.1286   11.9393 F       1  UNL1       -0.1930
     40 C          61.5610   85.6261    9.8831 C.3     1  UNL1        0.4565
     41 F          60.6346   85.7082    8.7061 F       1  UNL1       -0.1649
     42 F          62.6018   84.9783    9.0187 F       1  UNL1       -0.1649
     43 F          60.5202   86.2739   10.7474 F       1  UNL1       -0.1649
@<TRIPOS>BOND
     1    11    12    1
     2    12    13    1
     3    12    14    1
     4    12    10    1
     5    10     6    1
     6     6     7    2
     7     6     8   am
     8     8     5    1
     9     5    15    1
    10    15    16    1
    11    16    17   ar
    12    17    18   ar
    13    18    19   ar
    14    19    20   ar
    15    20    21   ar
    16    21    22    1
    17    22    23    1
    18    22    24    1
    19    22    25    1
    20     5     1    1
    21     1     2    2
    22     1     3   am
    23     3    26    1
    24    26    27    1
    25    27    28   ar
    26    28    29   ar
    27    29    30   ar
    28    30    31   ar
    29    31    32   ar
    30    32    33   ar
    31    33    34   ar
    32    34    35   ar
    33    35    36    1
    34    36    37    1
    35    37    38    1
    36    37    39    1
    37    37    40    1
    38    40    41    1
    39    40    42    1
    40    40    43    1
    41    21    16   ar
    42    35    27   ar
    43    34    29   ar
    44     8     9    1
    45     3     4    1
@<TRIPOS>MOLECULE
*****
 43 45 0 0 0
SMALL
GASTEIGER

@<TRIPOS>ATOM
      1 C          63.1230   89.3693   13.1356 C.2     1  UNL1        0.2411
      2 O          62.2719   89.6726   14.3329 O.2     1  UNL1       -0.2733
      3 N          63.7184   88.0031   12.9653 N.am    1  UNL1       -0.2966
      4 H          64.2770   87.8041   12.1794 H       1  UNL1        0.1499
      5 C          63.3787   90.4323   12.1085 C.3     1  UNL1        0.1554
      6 C          65.2261   91.4992   13.5914 C.2     1  UNL1        0.4017
      7 O          65.2785   90.2521   14.4234 O.2     1  UNL1       -0.2264
      8 N          64.2762   91.5892   12.4340 N.am    1  UNL1       -0.2637
      9 H          64.2418   92.4077   11.8880 H       1  UNL1        0.1532
     10 O          66.1236   92.6561   13.9169 O.3     1  UNL1       -0.4419
     11 C          66.7487   92.9648   15.9203 C.3     1  UNL1        0.0437
     12 C          67.3956   92.4276   14.6782 C.3     1  UNL1        0.1378
     13 C          68.0424   91.8903   13.4361 C.3     1  UNL1        0.0437
     14 C          68.6677   92.1990   15.4396 C.3     1  UNL1        0.0437
     15 C          62.7370   90.3382   10.7560 C.3     1  UNL1        0.0553
     16 C          62.0173   89.0853   10.3529 C.ar    1  UNL1       -0.0161
     17 C          62.7819   87.9384    9.7613 C.ar    1  UNL1       -0.0042
     18 C          62.0621   86.6857    9.3582 C.ar    1  UNL1       -0.0003
     19 C          60.5778   86.5798    9.5467 C.ar    1  UNL1       -0.0001
     20 C          59.8132   87.7267   10.1383 C.ar    1  UNL1        0.0035
     21 C          60.5329   88.9794   10.5414 C.ar    1  UNL1        0.0675
     22 C          59.7684   90.1264   11.1330 C.3     1  UNL1        0.4183
     23 F          59.0038   91.2733   11.7246 F       1  UNL1       -0.1659
     24 F          59.8704   89.4946   12.4896 F       1  UNL1       -0.1659
     25 F          59.6663   90.7582    9.7764 F       1  UNL1       -0.1659
     26 C          63.4627   86.9402   13.9923 C.3     1  UNL1        0.1543
     27 C          63.2959   85.5113   13.5674 C.ar    1  UNL1        0.1417
     28 N          63.4895   84.9758   12.1797 N.ar    1  UNL1       -0.2276
     29 C          63.2196   83.5006   12.2102 C.ar    1  UNL1        0.1167
     30 C          63.2554   82.4514   11.1389 C.ar    1  UNL1        0.0238
     31 C          62.9308   81.0258   11.4742 C.ar    1  UNL1        0.0223
     32 C          62.5704   80.6496   12.8808 C.ar    1  UNL1        0.1006
     33 N          62.5346   81.6989   13.9521 N.ar    1  UNL1       -0.2252
     34 C          62.8592   83.1244   13.6168 C.ar    1  UNL1        0.1626
     35 N          62.9064   84.3671   14.4555 N.ar    1  UNL1       -0.2930
     36 C          62.6151   84.4508   15.9246 C.3     1  UNL1        0.1839
     37 C          62.8076   85.7467   16.6548 C.3     1  UNL1        0.3693
     38 F          61.3209   85.9402   16.7034 F       1  UNL1       -0.1930
     39 F          64.2944   85.5533   16.6062 F       1  UNL1       -0.1930
     40 C          63.0002   87.0428   17.3850 C.3     1  UNL1        0.4565
     41 F          63.1928   88.3388   18.1153 F       1  UNL1       -0.1649
     42 F          63.6923   87.6166   16.1842 F       1  UNL1       -0.1649
     43 F          62.3082   86.4690   18.5858 F       1  UNL1       -0.1649
@<TRIPOS>BOND
     1    11    12    1
     2    12    13    1
     3    12    14    1
     4    12    10    1
     5    10     6    1
     6     6     7    2
     7     6     8   am
     8     8     5    1
     9     5    15    1
    10    15    16    1
    11    16    17   ar
    12    17    18   ar
    13    18    19   ar
    14    19    20   ar
    15    20    21   ar
    16    21    22    1
    17    22    23    1
    18    22    24    1
    19    22    25    1
    20     5     1    1
    21     1     2    2
    22     1     3   am
    23     3    26    1
    24    26    27    1
    25    27    28   ar
    26    28    29   ar
    27    29    30   ar
    28    30    31   ar
    29    31    32   ar
    30    32    33   ar
    31    33    34   ar
    32    34    35   ar
    33    35    36    1
    34    36    37    1
    35    37    38    1
    36    37    39    1
    37    37    40    1
    38    40    41    1
    39    40    42    1
    40    40    43    1
    41    21    16   ar
    42    35    27   ar
    43    34    29   ar
    44     8     9    1
    45     3     4    1
@<TRIPOS>MOLECULE
*****
 43 45 0 0 0
SMALL
GASTEIGER

@<TRIPOS>ATOM
      1 C          64.0610   91.5630   12.1311 C.2     1  UNL1        0.2411
      2 O          63.5122   91.3890   13.5162 O.2     1  UNL1       -0.2733
      3 N          63.4748   90.7870   10.9892 N.am    1  UNL1       -0.2966
      4 H          63.8350   90.9012   10.0801 H       1  UNL1        0.1499
      5 C          65.1960   92.5132   11.8879 C.3     1  UNL1        0.1554
      6 C          67.2177   92.8358   13.4875 C.2     1  UNL1        0.4017
      7 O          67.9530   91.7364   12.7799 O.2     1  UNL1       -0.2264
      8 N          65.8392   93.2242   13.0415 N.am    1  UNL1       -0.2637
      9 H          65.3566   93.9457   13.5059 H       1  UNL1        0.1532
     10 O          67.8609   93.5467   14.6411 O.3     1  UNL1       -0.4419
     11 C          69.7930   92.8711   15.1981 C.3     1  UNL1        0.0437
     12 C          68.4191   92.7601   15.7898 C.3     1  UNL1        0.1378
     13 C          67.0453   92.6492   16.3815 C.3     1  UNL1        0.0437
     14 C          68.9774   91.9735   16.9386 C.3     1  UNL1        0.0437
     15 C          65.6877   92.7523   10.4912 C.3     1  UNL1        0.0553
     16 C          66.1477   94.1201   10.0818 C.ar    1  UNL1       -0.0161
     17 C          65.3499   95.3283   10.4740 C.ar    1  UNL1       -0.0042
     18 C          65.8099   96.6960   10.0647 C.ar    1  UNL1       -0.0003
     19 C          67.0676   96.8556    9.2631 C.ar    1  UNL1       -0.0001
     20 C          67.8655   95.6475    8.8709 C.ar    1  UNL1        0.0035
     21 C          67.4055   94.2798    9.2803 C.ar    1  UNL1        0.0675
     22 C          68.2033   93.0715    8.8881 C.3     1  UNL1        0.4183
     23 F          69.0011   91.8634    8.4959 F       1  UNL1       -0.1659
     24 F          68.2131   92.6143   10.3166 F       1  UNL1       -0.1659
     25 F          68.1935   93.5287    7.4595 F       1  UNL1       -0.1659
     26 C          62.3398   89.8369   11.2323 C.3     1  UNL1        0.1543
     27 C          62.6184   88.4416   11.7073 C.ar    1  UNL1        0.1417
     28 N          63.4824   88.0633   12.8737 N.ar    1  UNL1       -0.2276
     29 C          63.4798   86.5676   12.9866 C.ar    1  UNL1        0.1167
     30 C          64.1539   85.6323   13.9463 C.ar    1  UNL1        0.0238
     31 C          63.9622   84.1510   13.8094 C.ar    1  UNL1        0.0223
     32 C          63.0966   83.6048   12.7128 C.ar    1  UNL1        0.1006
     33 N          62.4226   84.5400   11.7532 N.ar    1  UNL1       -0.2252
     34 C          62.6142   86.0214   11.8901 C.ar    1  UNL1        0.1626
     35 N          62.0818   87.1796   11.0994 N.ar    1  UNL1       -0.2930
     36 C          61.1725   87.0914    9.9098 C.3     1  UNL1        0.1839
     37 C          61.5469   86.2277    8.7420 C.3     1  UNL1        0.3693
     38 F          60.1420   85.7059    8.6774 F       1  UNL1       -0.1930
     39 F          62.9518   86.7495    8.8065 F       1  UNL1       -0.1930
     40 C          61.9214   85.3641    7.5741 C.3     1  UNL1        0.4565
     41 F          62.2958   84.5004    6.4062 F       1  UNL1       -0.1649
     42 F          63.3011   85.1986    8.1389 F       1  UNL1       -0.1649
     43 F          60.5417   85.5296    7.0093 F       1  UNL1       -0.1649
@<TRIPOS>BOND
     1    11    12    1
     2    12    13    1
     3    12    14    1
     4    12    10    1
     5    10     6    1
     6     6     7    2
     7     6     8   am
     8     8     5    1
     9     5    15    1
    10    15    16    1
    11    16    17   ar
    12    17    18   ar
    13    18    19   ar
    14    19    20   ar
    15    20    21   ar
    16    21    22    1
    17    22    23    1
    18    22    24    1
    19    22    25    1
    20     5     1    1
    21     1     2    2
    22     1     3   am
    23     3    26    1
    24    26    27    1
    25    27    28   ar
    26    28    29   ar
    27    29    30   ar
    28    30    31   ar
    29    31    32   ar
    30    32    33   ar
    31    33    34   ar
    32    34    35   ar
    33    35    36    1
    34    36    37    1
    35    37    38    1
    36    37    39    1
    37    37    40    1
    38    40    41    1
    39    40    42    1
    40    40    43    1
    41    21    16   ar
    42    35    27   ar
    43    34    29   ar
    44     8     9    1
    45     3     4    1
@<TRIPOS>MOLECULE
*****
 43 45 0 0 0
SMALL
GASTEIGER

@<TRIPOS>ATOM
      1 C          63.4391   86.9244   13.3746 C.2     1  UNL1        0.2411
      2 O          64.2168   86.6266   14.6222 O.2     1  UNL1       -0.2733
      3 N          63.2285   88.3456   12.9435 N.am    1  UNL1       -0.2966
      4 H          62.7180   88.5411   12.1247 H       1  UNL1        0.1499
      5 C          62.8721   85.8011   12.5581 C.3     1  UNL1        0.1554
      6 C          63.2835   83.5808   13.8431 C.2     1  UNL1        0.4017
      7 O          64.7637   83.8121   13.7689 O.2     1  UNL1       -0.2264
      8 N          62.3377   84.5753   13.2377 N.am    1  UNL1       -0.2637
      9 H          61.3662   84.4236   13.2864 H       1  UNL1        0.1532
     10 O          62.7490   82.3551   14.5227 O.3     1  UNL1       -0.4419
     11 C          63.9532   81.0953   13.3133 C.3     1  UNL1        0.0437
     12 C          62.5131   81.1021   13.7326 C.3     1  UNL1        0.1378
     13 C          61.0729   81.1089   14.1519 C.3     1  UNL1        0.0437
     14 C          62.2771   79.8491   12.9424 C.3     1  UNL1        0.0437
     15 C          62.8395   85.9035   11.0619 C.3     1  UNL1        0.0553
     16 C          61.6998   86.6034   10.3828 C.ar    1  UNL1       -0.0161
     17 C          60.7914   87.4983   11.1727 C.ar    1  UNL1       -0.0042
     18 C          59.6518   88.1981   10.4936 C.ar    1  UNL1       -0.0003
     19 C          59.4204   88.0031    9.0244 C.ar    1  UNL1       -0.0001
     20 C          60.3288   87.1082    8.2344 C.ar    1  UNL1        0.0035
     21 C          61.4684   86.4084    8.9136 C.ar    1  UNL1        0.0675
     22 C          62.3768   85.5135    8.1236 C.3     1  UNL1        0.4183
     23 F          63.2852   84.6186    7.3337 F       1  UNL1       -0.1659
     24 F          61.2014   84.6700    7.7276 F       1  UNL1       -0.1659
     25 F          63.5523   86.3570    8.5196 F       1  UNL1       -0.1659
     26 C          63.7955   89.4689   13.7599 C.3     1  UNL1        0.1543
     27 C          64.3622   90.6793   13.0789 C.ar    1  UNL1        0.1417
     28 N          64.1907   91.0386   11.6327 N.ar    1  UNL1       -0.2276
     29 C          64.9224   92.3243   11.3846 C.ar    1  UNL1        0.1167
     30 C          65.1013   93.1548   10.1484 C.ar    1  UNL1        0.0238
     31 C          65.9040   94.4207   10.2051 C.ar    1  UNL1        0.0223
     32 C          66.5278   94.8560   11.4979 C.ar    1  UNL1        0.1006
     33 N          66.3489   94.0255   12.7341 N.ar    1  UNL1       -0.2252
     34 C          65.5462   92.7596   12.6774 C.ar    1  UNL1        0.1626
     35 N          65.2000   91.7429   13.7245 N.ar    1  UNL1       -0.2930
     36 C          65.6181   91.7829   15.1645 C.3     1  UNL1        0.1839
     37 C          67.0453   92.0731   15.5234 C.3     1  UNL1        0.3693
     38 F          66.5857   93.0698   16.5458 F       1  UNL1       -0.1930
     39 F          67.5050   91.0764   14.5009 F       1  UNL1       -0.1930
     40 C          68.4725   92.3632   15.8821 C.3     1  UNL1        0.4565
     41 F          69.8999   92.6533   16.2409 F       1  UNL1       -0.1649
     42 F          68.2031   91.9404   17.2960 F       1  UNL1       -0.1649
     43 F          68.7420   92.7860   14.4684 F       1  UNL1       -0.1649
@<TRIPOS>BOND
     1    11    12    1
     2    12    13    1
     3    12    14    1
     4    12    10    1
     5    10     6    1
     6     6     7    2
     7     6     8   am
     8     8     5    1
     9     5    15    1
    10    15    16    1
    11    16    17   ar
    12    17    18   ar
    13    18    19   ar
    14    19    20   ar
    15    20    21   ar
    16    21    22    1
    17    22    23    1
    18    22    24    1
    19    22    25    1
    20     5     1    1
    21     1     2    2
    22     1     3   am
    23     3    26    1
    24    26    27    1
    25    27    28   ar
    26    28    29   ar
    27    29    30   ar
    28    30    31   ar
    29    31    32   ar
    30    32    33   ar
    31    33    34   ar
    32    34    35   ar
    33    35    36    1
    34    36    37    1
    35    37    38    1
    36    37    39    1
    37    37    40    1
    38    40    41    1
    39    40    42    1
    40    40    43    1
    41    21    16   ar
    42    35    27   ar
    43    34    29   ar
    44     8     9    1
    45     3     4    1
@<TRIPOS>MOLECULE
*****
 43 45 0 0 0
SMALL
GASTEIGER

@<TRIPOS>ATOM
      1 C          63.9468   91.1820   11.3706 C.2     1  UNL1        0.2411
      2 O          62.8608   91.3136   10.3443 O.2     1  UNL1       -0.2733
      3 N          63.9673   89.9998   12.2936 N.am    1  UNL1       -0.2966
      4 H          64.6801   89.9135   12.9672 H       1  UNL1        0.1499
      5 C          65.0124   92.2327   11.4739 C.3     1  UNL1        0.1554
      6 C          66.6217   92.9521   13.3825 C.2     1  UNL1        0.4017
      7 O          67.7577   92.2663   12.6832 O.2     1  UNL1       -0.2264
      8 N          65.2490   92.9353   12.7778 N.am    1  UNL1       -0.2637
      9 H          64.5034   93.3855   13.2368 H       1  UNL1        0.1532
     10 O          66.8583   93.6548   14.6865 O.3     1  UNL1       -0.4419
     11 C          68.8280   93.3814   15.4248 C.3     1  UNL1        0.0437
     12 C          67.4652   92.9117   15.8395 C.3     1  UNL1        0.1378
     13 C          66.1023   92.4419   16.2541 C.3     1  UNL1        0.0437
     14 C          68.0722   92.1686   16.9925 C.3     1  UNL1        0.0437
     15 C          65.8414   92.5807   10.2732 C.3     1  UNL1        0.0553
     16 C          66.2382   94.0056   10.0232 C.ar    1  UNL1       -0.0161
     17 C          65.3876   95.1241   10.5478 C.ar    1  UNL1       -0.0042
     18 C          65.7844   96.5489   10.2978 C.ar    1  UNL1       -0.0003
     19 C          67.0319   96.8551    9.5232 C.ar    1  UNL1       -0.0001
     20 C          67.8826   95.7366    8.9986 C.ar    1  UNL1        0.0035
     21 C          67.4857   94.3118    9.2486 C.ar    1  UNL1        0.0675
     22 C          68.3364   93.1932    8.7240 C.3     1  UNL1        0.4183
     23 F          69.1870   92.0746    8.1995 F       1  UNL1       -0.1659
     24 F          68.6199   92.7501   10.1287 F       1  UNL1       -0.1659
     25 F          68.0529   93.6363    7.3193 F       1  UNL1       -0.1659
     26 C          62.9018   88.9491   12.1903 C.3     1  UNL1        0.1543
     27 C          63.1540   87.5701   12.7240 C.ar    1  UNL1        0.1417
     28 N          63.9022   87.2339   13.9798 N.ar    1  UNL1       -0.2276
     29 C          63.9130   85.7412   14.1275 C.ar    1  UNL1        0.1167
     30 C          64.5022   84.8402   15.1719 C.ar    1  UNL1        0.0238
     31 C          64.3498   83.3528   15.0517 C.ar    1  UNL1        0.0223
     32 C          63.6082   82.7665   13.8871 C.ar    1  UNL1        0.1006
     33 N          63.0190   83.6675   12.8427 N.ar    1  UNL1       -0.2252
     34 C          63.1714   85.1549   12.9629 C.ar    1  UNL1        0.1626
     35 N          62.7023   86.2852   12.0955 N.ar    1  UNL1       -0.2930
     36 C          61.9191   86.1537   10.8230 C.3     1  UNL1        0.1839
     37 C          61.3079   87.3682   10.1895 C.3     1  UNL1        0.3693
     38 F          60.1668   87.3006   11.1608 F       1  UNL1       -0.1930
     39 F          62.4490   87.4358    9.2182 F       1  UNL1       -0.1930
     40 C          60.6967   88.5827    9.5560 C.3     1  UNL1        0.4565
     41 F          60.0856   89.7974    8.9224 F       1  UNL1       -0.1649
     42 F          59.3316   88.1005    9.9483 F       1  UNL1       -0.1649
     43 F          62.0618   89.0650    9.1637 F       1  UNL1       -0.1649
@<TRIPOS>BOND
     1    11    12    1
     2    12    13    1
     3    12    14    1
     4    12    10    1
     5    10     6    1
     6     6     7    2
     7     6     8   am
     8     8     5    1
     9     5    15    1
    10    15    16    1
    11    16    17   ar
    12    17    18   ar
    13    18    19   ar
    14    19    20   ar
    15    20    21   ar
    16    21    22    1
    17    22    23    1
    18    22    24    1
    19    22    25    1
    20     5     1    1
    21     1     2    2
    22     1     3   am
    23     3    26    1
    24    26    27    1
    25    27    28   ar
    26    28    29   ar
    27    29    30   ar
    28    30    31   ar
    29    31    32   ar
    30    32    33   ar
    31    33    34   ar
    32    34    35   ar
    33    35    36    1
    34    36    37    1
    35    37    38    1
    36    37    39    1
    37    37    40    1
    38    40    41    1
    39    40    42    1
    40    40    43    1
    41    21    16   ar
    42    35    27   ar
    43    34    29   ar
    44     8     9    1
    45     3     4    1
@<TRIPOS>MOLECULE
*****
 43 45 0 0 0
SMALL
GASTEIGER

@<TRIPOS>ATOM
      1 C          62.2092   88.1125   11.9140 C.2     1  UNL1        0.2411
      2 O          60.7923   88.1099   12.4061 O.2     1  UNL1       -0.2733
      3 N          63.2271   87.2157   12.5540 N.am    1  UNL1       -0.2966
      4 H          64.1571   87.2174   12.2310 H       1  UNL1        0.1499
      5 C          62.6083   89.0120   10.7818 C.3     1  UNL1        0.1554
      6 C          63.7576   90.7821   12.2971 C.2     1  UNL1        0.4017
      7 O          64.1408   89.7035   13.2665 O.2     1  UNL1       -0.2264
      8 N          62.9913   90.4363   11.0547 N.am    1  UNL1       -0.2637
      9 H          62.7398   91.1442   10.4185 H       1  UNL1        0.1532
     10 O          64.1405   92.2064   12.5700 O.3     1  UNL1       -0.4419
     11 C          65.9183   92.3304   13.7206 C.3     1  UNL1        0.0437
     12 C          65.5432   92.6692   12.3084 C.3     1  UNL1        0.1378
     13 C          65.1680   93.0080   10.8962 C.3     1  UNL1        0.0437
     14 C          66.9459   93.1319   12.0469 C.3     1  UNL1        0.0437
     15 C          62.6245   88.4870    9.3768 C.3     1  UNL1        0.0553
     16 C          61.3720   87.9258    8.7714 C.ar    1  UNL1       -0.0161
     17 C          60.2311   88.8373    8.4285 C.ar    1  UNL1       -0.0042
     18 C          58.9787   88.2761    7.8232 C.ar    1  UNL1       -0.0003
     19 C          58.8672   86.8035    7.5606 C.ar    1  UNL1       -0.0001
     20 C          60.0081   85.8920    7.9035 C.ar    1  UNL1        0.0035
     21 C          61.2605   86.4532    8.5088 C.ar    1  UNL1        0.0675
     22 C          62.4014   85.5417    8.8517 C.3     1  UNL1        0.4183
     23 F          63.5423   84.6303    9.1946 F       1  UNL1       -0.1659
     24 F          61.8421   85.3607   10.2316 F       1  UNL1       -0.1659
     25 F          62.9608   85.7228    7.4718 F       1  UNL1       -0.1659
     26 C          62.8280   86.3162   13.6861 C.3     1  UNL1        0.1543
     27 C          62.7895   84.8302   13.4856 C.ar    1  UNL1        0.1417
     28 N          62.9407   84.1128   12.1770 N.ar    1  UNL1       -0.2276
     29 C          62.8377   82.6399   12.4412 C.ar    1  UNL1        0.1167
     30 C          62.9118   81.4494   11.5316 C.ar    1  UNL1        0.0238
     31 C          62.7710   80.0660   12.0939 C.ar    1  UNL1        0.0223
     32 C          62.5561   79.8730   13.5659 C.ar    1  UNL1        0.1006
     33 N          62.4820   81.0634   14.4754 N.ar    1  UNL1       -0.2252
     34 C          62.6228   82.4469   13.9131 C.ar    1  UNL1        0.1626
     35 N          62.5930   83.8005   14.5586 N.ar    1  UNL1       -0.2930
     36 C          62.4006   84.0762   16.0204 C.3     1  UNL1        0.1839
     37 C          62.7080   85.4358   16.5742 C.3     1  UNL1        0.3693
     38 F          64.1762   85.1544   16.4501 F       1  UNL1       -0.1930
     39 F          61.2398   85.7173   16.6982 F       1  UNL1       -0.1930
     40 C          63.0154   86.7955   17.1279 C.3     1  UNL1        0.4565
     41 F          63.3228   88.1553   17.6818 F       1  UNL1       -0.1649
     42 F          63.8788   87.0858   15.9361 F       1  UNL1       -0.1649
     43 F          62.1520   86.5053   18.3197 F       1  UNL1       -0.1649
@<TRIPOS>BOND
     1    11    12    1
     2    12    13    1
     3    12    14    1
     4    12    10    1
     5    10     6    1
     6     6     7    2
     7     6     8   am
     8     8     5    1
     9     5    15    1
    10    15    16    1
    11    16    17   ar
    12    17    18   ar
    13    18    19   ar
    14    19    20   ar
    15    20    21   ar
    16    21    22    1
    17    22    23    1
    18    22    24    1
    19    22    25    1
    20     5     1    1
    21     1     2    2
    22     1     3   am
    23     3    26    1
    24    26    27    1
    25    27    28   ar
    26    28    29   ar
    27    29    30   ar
    28    30    31   ar
    29    31    32   ar
    30    32    33   ar
    31    33    34   ar
    32    34    35   ar
    33    35    36    1
    34    36    37    1
    35    37    38    1
    36    37    39    1
    37    37    40    1
    38    40    41    1
    39    40    42    1
    40    40    43    1
    41    21    16   ar
    42    35    27   ar
    43    34    29   ar
    44     8     9    1
    45     3     4    1
