@<TRIPOS>MOLECULE
*****
 8 8 0 0 0
SMALL
GASTEIGER

@<TRIPOS>ATOM
      1 C          67.7504   94.4885    9.3518 C.ar    1  UNL1        0.1171
      2 N          67.0151   94.8180   10.6171 N.ar    1  UNL1       -0.2296
      3 C          66.6699   96.2774   10.5860 C.ar    1  UNL1        0.1186
      4 C          67.1919   96.8499    9.3015 C.ar    1  UNL1        0.0942
      5 N          67.8596   95.7443    8.5388 N.ar    1  UNL1       -0.3396
      6 H          68.2934   95.8281    7.6590 H       1  UNL1        0.1671
      7 C          68.1774   91.9907    9.9253 C.3     1  UNL1        0.0084
      8 C          68.2829   93.1400    8.9672 C.3     1  UNL1        0.0637
@<TRIPOS>BOND
     1     7     8    1
     2     8     1    1
     3     1     2   ar
     4     2     3   ar
     5     3     4   ar
     6     4     5   ar
     7     5     1   ar
     8     5     6    1
@<TRIPOS>MOLECULE
*****
 8 8 0 0 0
SMALL
GASTEIGER

@<TRIPOS>ATOM
      1 C          62.3019   82.4411   14.2628 C.ar    1  UNL1        0.1171
      2 N          62.6965   83.4046   13.1831 N.ar    1  UNL1       -0.2296
      3 C          63.3871   84.5685   13.8300 C.ar    1  UNL1        0.1186
      4 C          63.4193   84.3243   15.3096 C.ar    1  UNL1        0.0942
      5 N          62.7487   83.0096   15.5771 N.ar    1  UNL1       -0.3396
      6 H          62.6236   82.5928   16.4603 H       1  UNL1        0.1671
      7 C          62.2396   80.0351   13.2845 C.3     1  UNL1        0.0084
      8 C          61.5863   81.1380   14.0634 C.3     1  UNL1        0.0637
@<TRIPOS>BOND
     1     7     8    1
     2     8     1    1
     3     1     2   ar
     4     2     3   ar
     5     3     4   ar
     6     4     5   ar
     7     5     1   ar
     8     5     6    1
@<TRIPOS>MOLECULE
*****
 8 8 0 0 0
SMALL
GASTEIGER

@<TRIPOS>ATOM
      1 C          66.4164   92.7439   14.4733 C.ar    1  UNL1        0.1171
      2 N          65.2077   91.9656   14.0452 N.ar    1  UNL1       -0.2296
      3 C          65.0276   92.1637   12.5693 C.ar    1  UNL1        0.1186
      4 C          66.1250   93.0644   12.0852 C.ar    1  UNL1        0.0942
      5 N          66.9833   93.4230   13.2619 N.ar    1  UNL1       -0.3396
      6 H          67.7791   94.0023   13.2426 H       1  UNL1        0.1671
      7 C          68.3669   92.3848   16.1515 C.3     1  UNL1        0.0084
      8 C          66.9624   92.8283   15.8679 C.3     1  UNL1        0.0637
@<TRIPOS>BOND
     1     7     8    1
     2     8     1    1
     3     1     2   ar
     4     2     3   ar
     5     3     4   ar
     6     4     5   ar
     7     5     1   ar
     8     5     6    1
@<TRIPOS>MOLECULE
*****
 8 8 0 0 0
SMALL
GASTEIGER

@<TRIPOS>ATOM
      1 C          63.3495   82.2463   12.5324 C.ar    1  UNL1        0.1171
      2 N          62.5897   82.7789   13.7110 N.ar    1  UNL1       -0.2296
      3 C          61.7759   81.6565   14.2837 C.ar    1  UNL1        0.1186
      4 C          62.0328   80.4301   13.4590 C.ar    1  UNL1        0.0942
      5 N          63.0053   80.7946   12.3767 N.ar    1  UNL1       -0.3396
      6 H          63.3560   80.1877   11.6855 H       1  UNL1        0.1671
      7 C          64.1252   83.0040   10.1715 C.3     1  UNL1        0.0084
      8 C          64.2886   83.0280   11.6623 C.3     1  UNL1        0.0637
@<TRIPOS>BOND
     1     7     8    1
     2     8     1    1
     3     1     2   ar
     4     2     3   ar
     5     3     4   ar
     6     4     5   ar
     7     5     1   ar
     8     5     6    1
@<TRIPOS>MOLECULE
*****
 8 8 0 0 0
SMALL
GASTEIGER

@<TRIPOS>ATOM
      1 C          67.0265   92.5965   13.5604 C.ar    1  UNL1        0.1171
      2 N          66.1916   93.0561   14.7187 N.ar    1  UNL1       -0.2296
      3 C          66.9818   92.8385   15.9749 C.ar    1  UNL1        0.1186
      4 C          68.3052   92.2446   15.5931 C.ar    1  UNL1        0.0942
      5 N          68.3328   92.0950   14.1008 N.ar    1  UNL1       -0.3396
      6 H          69.0776   91.7315   13.5693 H       1  UNL1        0.1671
      7 C          65.2193   92.2935   11.7186 C.3     1  UNL1        0.0084
      8 C          66.6256   92.6323   12.1154 C.3     1  UNL1        0.0637
@<TRIPOS>BOND
     1     7     8    1
     2     8     1    1
     3     1     2   ar
     4     2     3   ar
     5     3     4   ar
     6     4     5   ar
     7     5     1   ar
     8     5     6    1
@<TRIPOS>MOLECULE
*****
 8 8 0 0 0
SMALL
GASTEIGER

@<TRIPOS>ATOM
      1 C          64.0580   83.2206   12.6583 C.ar    1  UNL1        0.1171
      2 N          62.7048   83.1624   13.3030 N.ar    1  UNL1       -0.2296
      3 C          62.7975   83.8409   14.6375 C.ar    1  UNL1        0.1186
      4 C          64.2080   84.3186   14.8177 C.ar    1  UNL1        0.0942
      5 N          64.9870   83.9352   13.5945 N.ar    1  UNL1       -0.3396
      6 H          65.9406   84.1201   13.4342 H       1  UNL1        0.1671
      7 C          63.9424   83.3449   10.0658 C.3     1  UNL1        0.0084
      8 C          64.4188   82.6624   11.3137 C.3     1  UNL1        0.0637
@<TRIPOS>BOND
     1     7     8    1
     2     8     1    1
     3     1     2   ar
     4     2     3   ar
     5     3     4   ar
     6     4     5   ar
     7     5     1   ar
     8     5     6    1
@<TRIPOS>MOLECULE
*****
 8 8 0 0 0
SMALL
GASTEIGER

@<TRIPOS>ATOM
      1 C          63.4485   82.4677   14.2553 C.ar    1  UNL1        0.1171
      2 N          63.7314   81.9423   12.8791 N.ar    1  UNL1       -0.2296
      3 C          62.7058   80.8944   12.5630 C.ar    1  UNL1        0.1186
      4 C          61.7890   80.7720   13.7439 C.ar    1  UNL1        0.0942
      5 N          62.2480   81.7444   14.7897 N.ar    1  UNL1       -0.3396
      6 H          61.8339   81.8834   15.6721 H       1  UNL1        0.1671
      7 C          64.4976   84.8440   14.3002 C.3     1  UNL1        0.0084
      8 C          64.2289   83.5298   14.9714 C.3     1  UNL1        0.0637
@<TRIPOS>BOND
     1     7     8    1
     2     8     1    1
     3     1     2   ar
     4     2     3   ar
     5     3     4   ar
     6     4     5   ar
     7     5     1   ar
     8     5     6    1
@<TRIPOS>MOLECULE
*****
 8 8 0 0 0
SMALL
GASTEIGER

@<TRIPOS>ATOM
      1 C          63.5271   92.7812    1.7654 C.ar    1  UNL1        0.1171
      2 N          62.8571   93.3998    0.5745 N.ar    1  UNL1       -0.2296
      3 C          63.8954   94.1550   -0.2012 C.ar    1  UNL1        0.1186
      4 C          65.2071   94.0031    0.5103 C.ar    1  UNL1        0.0942
      5 N          64.9795   93.1540    1.7258 N.ar    1  UNL1       -0.3396
      6 H          65.6633   92.8882    2.3823 H       1  UNL1        0.1671
      7 C          63.5190   90.6766    3.2888 C.3     1  UNL1        0.0084
      8 C          62.8616   91.9378    2.8122 C.3     1  UNL1        0.0637
@<TRIPOS>BOND
     1     7     8    1
     2     8     1    1
     3     1     2   ar
     4     2     3   ar
     5     3     4   ar
     6     4     5   ar
     7     5     1   ar
     8     5     6    1
@<TRIPOS>MOLECULE
*****
 8 8 0 0 0
SMALL
GASTEIGER

@<TRIPOS>ATOM
      1 C          66.5394   93.3718   12.7412 C.ar    1  UNL1        0.1171
      2 N          66.3102   93.9999   14.0840 N.ar    1  UNL1       -0.2296
      3 C          67.1357   93.2553   15.0910 C.ar    1  UNL1        0.1186
      4 C          67.8750   92.1670   14.3707 C.ar    1  UNL1        0.0942
      5 N          67.5065   92.2390   12.9185 N.ar    1  UNL1       -0.3396
      6 H          67.8407   91.6467   12.2066 H       1  UNL1        0.1671
      7 C          66.7775   94.2031   10.2913 C.3     1  UNL1        0.0084
      8 C          65.9116   93.8011   11.4483 C.3     1  UNL1        0.0637
@<TRIPOS>BOND
     1     7     8    1
     2     8     1    1
     3     1     2   ar
     4     2     3   ar
     5     3     4   ar
     6     4     5   ar
     7     5     1   ar
     8     5     6    1
