@<TRIPOS>MOLECULE
*****
 28 31 0 0 0
SMALL
GASTEIGER

@<TRIPOS>ATOM
      1 C          65.7210   93.1758   12.2419 C.2     1  UNL1        0.0919
      2 C          66.2799   93.6196   13.5611 C.2     1  UNL1        0.0183
      3 C          66.0890   92.7682   14.7812 C.2     1  UNL1        0.0511
      4 C          65.3391   91.4730   14.6821 C.2     1  UNL1        0.2322
      5 N          64.9952   90.4314   15.7052 N.2     1  UNL1       -0.0307
      6 C          64.2237   89.3437   15.0183 C.2     1  UNL1        0.3799
      7 N          64.0908   89.7131   13.5706 N.2     1  UNL1       -0.0345
      8 C          64.7801   91.0291   13.3628 C.2     1  UNL1        0.2191
      9 C          64.9711   91.8805   12.1427 C.3     1  UNL1        0.1226
     10 C          63.6805   88.1043   15.6655 C.ar    1  UNL1        0.1447
     11 C          63.1116   88.1699   17.0519 C.ar    1  UNL1        0.0141
     12 C          62.5684   86.9306   17.6991 C.ar    1  UNL1        0.0195
     13 C          62.5942   85.6256   16.9600 C.ar    1  UNL1        0.0829
     14 N          63.1631   85.5600   15.5736 N.ar    1  UNL1       -0.2729
     15 C          63.7063   86.7994   14.9264 C.ar    1  UNL1        0.2722
     16 O          64.2752   86.7337   13.5400 O.2     1  UNL1       -0.2664
     17 C          63.1889   84.2550   14.8345 C.ar    1  UNL1        0.0669
     18 C          62.0678   83.2734   15.0065 C.ar    1  UNL1        0.0176
     19 C          62.0935   81.9684   14.2674 C.ar    1  UNL1        0.0015
     20 C          63.2404   81.6450   13.3563 C.ar    1  UNL1        0.0001
     21 C          64.3615   82.6266   13.1843 C.ar    1  UNL1        0.0015
     22 C          64.3357   83.9316   13.9234 C.ar    1  UNL1        0.0176
     23 S          65.9119   94.0272   11.0218 S.O2    1  UNL1        0.0054
     24 O          65.0733   93.0726   10.2244 O.2     1  UNL1       -0.1689
     25 O          66.7504   94.9817   11.8191 O.2     1  UNL1       -0.1689
     26 C          66.1028   94.8786    9.8016 C.3     1  UNL1        0.1556
     27 C          68.2304   93.6091    9.0195 C.3     1  UNL1        0.0019
     28 C          67.4164   94.8677    9.0775 C.3     1  UNL1        0.0257
@<TRIPOS>BOND
     1    27    28    1
     2    28    26    1
     3    26    23    1
     4    23    24    2
     5    23    25    2
     6    23     1    1
     7     1     2    2
     8     2     3    1
     9     3     4    2
    10     4     5    1
    11     5     6    2
    12     6    10    1
    13    10    11   ar
    14    11    12   ar
    15    12    13   ar
    16    13    14   ar
    17    14    17    1
    18    17    18   ar
    19    18    19   ar
    20    19    20   ar
    21    20    21   ar
    22    21    22   ar
    23    14    15   ar
    24    15    16    2
    25     6     7    1
    26     7     8    2
    27     8     9    1
    28     9     1    1
    29     8     4    1
    30    15    10   ar
    31    22    17   ar
@<TRIPOS>MOLECULE
*****
 28 31 0 0 0
SMALL
GASTEIGER

@<TRIPOS>ATOM
      1 C          62.7488   85.3912   13.0751 C.2     1  UNL1        0.0919
      2 C          62.0020   85.9716   11.9109 C.2     1  UNL1        0.0183
      3 C          62.2022   87.4093   11.5329 C.2     1  UNL1        0.0511
      4 C          63.1492   88.2666   12.3191 C.2     1  UNL1        0.2322
      5 N          63.5484   89.7062   12.1836 N.2     1  UNL1       -0.0307
      6 C          64.5418   90.0155   13.2640 C.2     1  UNL1        0.3799
      7 N          64.7567   88.7671   14.0674 N.2     1  UNL1       -0.0345
      8 C          63.8960   87.6862   13.4833 C.2     1  UNL1        0.2191
      9 C          63.6958   86.2485   13.8613 C.3     1  UNL1        0.1226
     10 C          65.2042   91.3406   13.4997 C.ar    1  UNL1        0.1447
     11 C          65.5825   91.7529   14.8914 C.ar    1  UNL1        0.0141
     12 C          66.2448   93.0779   15.1272 C.ar    1  UNL1        0.0195
     13 C          66.5288   93.9906   13.9712 C.ar    1  UNL1        0.0829
     14 N          66.1504   93.5783   12.5795 N.ar    1  UNL1       -0.2729
     15 C          65.4881   92.2533   12.3438 C.ar    1  UNL1        0.2722
     16 O          65.1098   91.8410   10.9521 O.2     1  UNL1       -0.2664
     17 C          66.4344   94.4911   11.4235 C.ar    1  UNL1        0.0669
     18 C          67.0908   93.9531   10.1867 C.ar    1  UNL1        0.0176
     19 C          67.3747   94.8659    9.0308 C.ar    1  UNL1        0.0015
     20 C          67.0023   96.3166    9.1117 C.ar    1  UNL1        0.0001
     21 C          66.3459   96.8546   10.3485 C.ar    1  UNL1        0.0015
     22 C          66.0620   95.9419   11.5044 C.ar    1  UNL1        0.0176
     23 S          62.5486   83.9535   13.4531 S.O2    1  UNL1        0.0054
     24 O          63.0471   83.5292   12.1034 O.2     1  UNL1       -0.1689
     25 O          62.0501   84.3777   14.8027 O.2     1  UNL1       -0.1689
     26 C          62.3484   82.5157   13.8311 C.3     1  UNL1        0.1556
     27 C          62.3689   79.9981   13.1901 C.3     1  UNL1        0.0019
     28 C          62.5130   81.4392   12.7996 C.3     1  UNL1        0.0257
@<TRIPOS>BOND
     1    27    28    1
     2    28    26    1
     3    26    23    1
     4    23    24    2
     5    23    25    2
     6    23     1    1
     7     1     2    2
     8     2     3    1
     9     3     4    2
    10     4     5    1
    11     5     6    2
    12     6    10    1
    13    10    11   ar
    14    11    12   ar
    15    12    13   ar
    16    13    14   ar
    17    14    17    1
    18    17    18   ar
    19    18    19   ar
    20    19    20   ar
    21    20    21   ar
    22    21    22   ar
    23    14    15   ar
    24    15    16    2
    25     6     7    1
    26     7     8    2
    27     8     9    1
    28     9     1    1
    29     8     4    1
    30    15    10   ar
    31    22    17   ar
@<TRIPOS>MOLECULE
*****
 28 31 0 0 0
SMALL
GASTEIGER

@<TRIPOS>ATOM
      1 C          65.2828   92.7724   11.7798 C.2     1  UNL1        0.0919
      2 C          64.2683   92.2818   10.7899 C.2     1  UNL1        0.0183
      3 C          63.5146   91.0122   11.0551 C.2     1  UNL1        0.0511
      4 C          63.7755   90.2334   12.3102 C.2     1  UNL1        0.2322
      5 N          63.1914   88.9571   12.8391 N.2     1  UNL1       -0.0307
      6 C          63.8449   88.6589   14.1560 C.2     1  UNL1        0.3799
      7 N          64.8329   89.7510   14.4409 N.2     1  UNL1       -0.0345
      8 C          64.7900   90.7241   13.3001 C.2     1  UNL1        0.2191
      9 C          65.5436   91.9936   13.0349 C.3     1  UNL1        0.1226
     10 C          63.5603   87.4762   15.0337 C.ar    1  UNL1        0.1447
     11 C          63.3787   87.6649   16.5107 C.ar    1  UNL1        0.0141
     12 C          63.0942   86.4823   17.3885 C.ar    1  UNL1        0.0195
     13 C          62.9912   85.1111   16.7893 C.ar    1  UNL1        0.0829
     14 N          63.1728   84.9225   15.3123 N.ar    1  UNL1       -0.2729
     15 C          63.4573   86.1050   14.4345 C.ar    1  UNL1        0.2722
     16 O          63.6389   85.9164   12.9576 O.2     1  UNL1       -0.2664
     17 C          63.0698   83.5511   14.7131 C.ar    1  UNL1        0.0669
     18 C          64.2470   82.9535   14.0010 C.ar    1  UNL1        0.0176
     19 C          64.1439   81.5822   13.4019 C.ar    1  UNL1        0.0015
     20 C          62.8638   80.8086   13.5148 C.ar    1  UNL1        0.0001
     21 C          61.6866   81.4063   14.2269 C.ar    1  UNL1        0.0015
     22 C          61.7897   82.7775   14.8260 C.ar    1  UNL1        0.0176
     23 S          66.0365   94.0419   11.5146 S.O2    1  UNL1        0.0054
     24 O          65.9993   93.7565   10.0425 O.2     1  UNL1       -0.1689
     25 O          66.0736   94.3274   12.9867 O.2     1  UNL1       -0.1689
     26 C          66.7902   95.3114   11.2494 C.3     1  UNL1        0.1556
     27 C          67.2269   96.8560    9.2065 C.3     1  UNL1        0.0019
     28 C          66.2855   96.2830   10.2241 C.3     1  UNL1        0.0257
@<TRIPOS>BOND
     1    27    28    1
     2    28    26    1
     3    26    23    1
     4    23    24    2
     5    23    25    2
     6    23     1    1
     7     1     2    2
     8     2     3    1
     9     3     4    2
    10     4     5    1
    11     5     6    2
    12     6    10    1
    13    10    11   ar
    14    11    12   ar
    15    12    13   ar
    16    13    14   ar
    17    14    17    1
    18    17    18   ar
    19    18    19   ar
    20    19    20   ar
    21    20    21   ar
    22    21    22   ar
    23    14    15   ar
    24    15    16    2
    25     6     7    1
    26     7     8    2
    27     8     9    1
    28     9     1    1
    29     8     4    1
    30    15    10   ar
    31    22    17   ar
@<TRIPOS>MOLECULE
*****
 28 31 0 0 0
SMALL
GASTEIGER

@<TRIPOS>ATOM
      1 C          62.8534   81.8392   12.9014 C.2     1  UNL1        0.0919
      2 C          63.1622   82.0408   14.3553 C.2     1  UNL1        0.0183
      3 C          63.3922   83.4239   14.8884 C.2     1  UNL1        0.0511
      4 C          63.3134   84.6053   13.9676 C.2     1  UNL1        0.2322
      5 N          63.4918   86.0758   14.2039 N.2     1  UNL1       -0.0307
      6 C          63.2932   86.7830   12.8960 C.2     1  UNL1        0.3799
      7 N          62.9921   85.7496   11.8513 N.2     1  UNL1       -0.0345
      8 C          63.0046   84.4037   12.5136 C.2     1  UNL1        0.2191
      9 C          62.7746   83.0206   11.9806 C.3     1  UNL1        0.1226
     10 C          63.3805   88.2637   12.6721 C.ar    1  UNL1        0.1447
     11 C          62.5936   88.9027   11.5665 C.ar    1  UNL1        0.0141
     12 C          62.6809   90.3832   11.3426 C.ar    1  UNL1        0.0195
     13 C          63.5550   91.2249   12.2243 C.ar    1  UNL1        0.0829
     14 N          64.3419   90.5859   13.3300 N.ar    1  UNL1       -0.2729
     15 C          64.2546   89.1053   13.5539 C.ar    1  UNL1        0.2722
     16 O          65.0415   88.4663   14.6596 O.2     1  UNL1       -0.2664
     17 C          65.2160   91.4275   14.2118 C.ar    1  UNL1        0.0669
     18 C          64.8101   91.7001   15.6299 C.ar    1  UNL1        0.0176
     19 C          65.6842   92.5418   16.5116 C.ar    1  UNL1        0.0015
     20 C          66.9643   93.1108   15.9752 C.ar    1  UNL1        0.0001
     21 C          67.3702   92.8383   14.5572 C.ar    1  UNL1        0.0015
     22 C          66.4961   91.9966   13.6755 C.ar    1  UNL1        0.0176
     23 S          62.6235   80.4561   12.3683 S.O2    1  UNL1        0.0054
     24 O          62.1374   80.0168   13.7177 O.2     1  UNL1       -0.1689
     25 O          63.1095   80.8954   11.0189 O.2     1  UNL1       -0.1689
     26 C          62.3935   79.0730   11.8352 C.3     1  UNL1        0.1556
     27 C          63.1838   77.3403   10.0679 C.3     1  UNL1        0.0019
     28 C          62.7774   78.7396   10.4241 C.3     1  UNL1        0.0257
@<TRIPOS>BOND
     1    27    28    1
     2    28    26    1
     3    26    23    1
     4    23    24    2
     5    23    25    2
     6    23     1    1
     7     1     2    2
     8     2     3    1
     9     3     4    2
    10     4     5    1
    11     5     6    2
    12     6    10    1
    13    10    11   ar
    14    11    12   ar
    15    12    13   ar
    16    13    14   ar
    17    14    17    1
    18    17    18   ar
    19    18    19   ar
    20    19    20   ar
    21    20    21   ar
    22    21    22   ar
    23    14    15   ar
    24    15    16    2
    25     6     7    1
    26     7     8    2
    27     8     9    1
    28     9     1    1
    29     8     4    1
    30    15    10   ar
    31    22    17   ar
@<TRIPOS>MOLECULE
*****
 28 31 0 0 0
SMALL
GASTEIGER

@<TRIPOS>ATOM
      1 C          65.2853   91.3907   13.7433 C.2     1  UNL1        0.0919
      2 C          64.3870   91.4070   12.5422 C.2     1  UNL1        0.0183
      3 C          63.6104   90.1790   12.1697 C.2     1  UNL1        0.0511
      4 C          63.7322   88.9346   12.9983 C.2     1  UNL1        0.2322
      5 N          63.0950   87.5820   12.8776 N.2     1  UNL1       -0.0307
      6 C          63.5995   86.7297   14.0041 C.2     1  UNL1        0.3799
      7 N          64.5485   87.5555   14.8210 N.2     1  UNL1       -0.0345
      8 C          64.6305   88.9182   14.1994 C.2     1  UNL1        0.2191
      9 C          65.4071   90.1463   14.5719 C.3     1  UNL1        0.1226
     10 C          63.2214   85.3022   14.2674 C.ar    1  UNL1        0.1447
     11 C          62.7855   84.8827   15.6400 C.ar    1  UNL1        0.0141
     12 C          62.4074   83.4553   15.9033 C.ar    1  UNL1        0.0195
     13 C          62.4652   82.4473   14.7940 C.ar    1  UNL1        0.0829
     14 N          62.9011   82.8667   13.4214 N.ar    1  UNL1       -0.2729
     15 C          63.2793   84.2942   13.1581 C.ar    1  UNL1        0.2722
     16 O          63.7152   84.7136   11.7855 O.2     1  UNL1       -0.2664
     17 C          62.9590   81.8586   12.3121 C.ar    1  UNL1        0.0669
     18 C          62.5741   80.4327   12.5738 C.ar    1  UNL1        0.0176
     19 C          62.6320   79.4247   11.4645 C.ar    1  UNL1        0.0015
     20 C          63.0746   79.8426   10.0936 C.ar    1  UNL1        0.0001
     21 C          63.4594   81.2686    9.8320 C.ar    1  UNL1        0.0015
     22 C          63.4016   82.2766   10.9412 C.ar    1  UNL1        0.0176
     23 S          66.0619   92.6187   14.1159 S.O2    1  UNL1        0.0054
     24 O          66.7729   92.5695   12.7960 O.2     1  UNL1       -0.1689
     25 O          65.3510   92.6680   15.4358 O.2     1  UNL1       -0.1689
     26 C          66.8385   93.8468   14.4884 C.3     1  UNL1        0.1556
     27 C          68.7655   92.6685   15.7723 C.3     1  UNL1        0.0019
     28 C          67.7975   93.8068   15.6411 C.3     1  UNL1        0.0257
@<TRIPOS>BOND
     1    27    28    1
     2    28    26    1
     3    26    23    1
     4    23    24    2
     5    23    25    2
     6    23     1    1
     7     1     2    2
     8     2     3    1
     9     3     4    2
    10     4     5    1
    11     5     6    2
    12     6    10    1
    13    10    11   ar
    14    11    12   ar
    15    12    13   ar
    16    13    14   ar
    17    14    17    1
    18    17    18   ar
    19    18    19   ar
    20    19    20   ar
    21    20    21   ar
    22    21    22   ar
    23    14    15   ar
    24    15    16    2
    25     6     7    1
    26     7     8    2
    27     8     9    1
    28     9     1    1
    29     8     4    1
    30    15    10   ar
    31    22    17   ar
@<TRIPOS>MOLECULE
*****
 28 31 0 0 0
SMALL
GASTEIGER

@<TRIPOS>ATOM
      1 C          63.1063   85.6991   15.5323 C.2     1  UNL1        0.0919
      2 C          62.3901   86.3420   16.6828 C.2     1  UNL1        0.0183
      3 C          62.6238   87.7899   16.9970 C.2     1  UNL1        0.0511
      4 C          63.5738   88.5950   16.1608 C.2     1  UNL1        0.2322
      5 N          64.0024   90.0308   16.2296 N.2     1  UNL1       -0.0307
      6 C          64.9836   90.2753   15.1217 C.2     1  UNL1        0.3799
      7 N          65.1614   88.9906   14.3681 N.2     1  UNL1       -0.0345
      8 C          64.2900   87.9521   15.0103 C.2     1  UNL1        0.2191
      9 C          64.0563   86.5042   14.6961 C.3     1  UNL1        0.1226
     10 C          65.6670   91.5762   14.8203 C.ar    1  UNL1        0.1447
     11 C          66.3200   92.3537   15.9244 C.ar    1  UNL1        0.0141
     12 C          67.0034   93.6545   15.6231 C.ar    1  UNL1        0.0195
     13 C          67.0339   94.1777   14.2177 C.ar    1  UNL1        0.0829
     14 N          66.3809   93.4002   13.1136 N.ar    1  UNL1       -0.2729
     15 C          65.6975   92.0994   13.4149 C.ar    1  UNL1        0.2722
     16 O          65.0446   91.3218   12.3108 O.2     1  UNL1       -0.2664
     17 C          66.4114   93.9235   11.7081 C.ar    1  UNL1        0.0669
     18 C          67.0472   93.1113   10.6190 C.ar    1  UNL1        0.0176
     19 C          67.0776   93.6346    9.2136 C.ar    1  UNL1        0.0015
     20 C          66.4723   94.9701    8.8973 C.ar    1  UNL1        0.0001
     21 C          65.8365   95.7822    9.9863 C.ar    1  UNL1        0.0015
     22 C          65.8061   95.2589   11.3917 C.ar    1  UNL1        0.0176
     23 S          62.8726   84.2511   15.2181 S.O2    1  UNL1        0.0054
     24 O          61.3956   84.5042   15.1504 O.2     1  UNL1       -0.1689
     25 O          64.3495   83.9980   15.2858 O.2     1  UNL1       -0.1689
     26 C          62.6388   82.8031   14.9039 C.3     1  UNL1        0.1556
     27 C          62.1722   80.9369   13.1577 C.3     1  UNL1        0.0019
     28 C          62.5741   82.3464   13.4766 C.3     1  UNL1        0.0257
@<TRIPOS>BOND
     1    27    28    1
     2    28    26    1
     3    26    23    1
     4    23    24    2
     5    23    25    2
     6    23     1    1
     7     1     2    2
     8     2     3    1
     9     3     4    2
    10     4     5    1
    11     5     6    2
    12     6    10    1
    13    10    11   ar
    14    11    12   ar
    15    12    13   ar
    16    13    14   ar
    17    14    17    1
    18    17    18   ar
    19    18    19   ar
    20    19    20   ar
    21    20    21   ar
    22    21    22   ar
    23    14    15   ar
    24    15    16    2
    25     6     7    1
    26     7     8    2
    27     8     9    1
    28     9     1    1
    29     8     4    1
    30    15    10   ar
    31    22    17   ar
@<TRIPOS>MOLECULE
*****
 28 31 0 0 0
SMALL
GASTEIGER

@<TRIPOS>ATOM
      1 C          60.9924   87.1596    8.8928 C.2     1  UNL1        0.0919
      2 C          60.1295   88.3825    8.7930 C.2     1  UNL1        0.0183
      3 C          60.2542   89.4738    9.8145 C.2     1  UNL1        0.0511
      4 C          61.2417   89.3423   10.9358 C.2     1  UNL1        0.2322
      5 N          61.5858   90.2471   12.0816 N.2     1  UNL1       -0.0307
      6 C          62.6614   89.5835   12.8896 C.2     1  UNL1        0.3799
      7 N          62.9821   88.2685   12.2432 N.2     1  UNL1       -0.0345
      8 C          62.1046   88.1194   11.0356 C.2     1  UNL1        0.2191
      9 C          61.9800   87.0281   10.0141 C.3     1  UNL1        0.1226
     10 C          63.3035   90.1377   14.1268 C.ar    1  UNL1        0.1447
     11 C          62.5990   90.0365   15.4471 C.ar    1  UNL1        0.0141
     12 C          63.2410   90.5907   16.6843 C.ar    1  UNL1        0.0195
     13 C          64.5877   91.2460   16.6011 C.ar    1  UNL1        0.0829
     14 N          65.2923   91.3472   15.2808 N.ar    1  UNL1       -0.2729
     15 C          64.6502   90.7931   14.0436 C.ar    1  UNL1        0.2722
     16 O          65.3548   90.8943   12.7233 O.2     1  UNL1       -0.2664
     17 C          66.6390   92.0026   15.1976 C.ar    1  UNL1        0.0669
     18 C          67.6111   91.5867   14.1336 C.ar    1  UNL1        0.0176
     19 C          68.9578   92.2421   14.0505 C.ar    1  UNL1        0.0015
     20 C          69.3323   93.3133   15.0314 C.ar    1  UNL1        0.0001
     21 C          68.3603   93.7292   16.0954 C.ar    1  UNL1        0.0015
     22 C          67.0136   93.0738   16.1785 C.ar    1  UNL1        0.0176
     23 S          60.8678   86.0683    7.8713 S.O2    1  UNL1        0.0054
     24 O          59.4563   86.4917    7.5912 O.2     1  UNL1       -0.1689
     25 O          62.2793   85.6449    8.1514 O.2     1  UNL1       -0.1689
     26 C          60.7431   84.9770    6.8498 C.3     1  UNL1        0.1556
     27 C          61.9464   84.1731    4.6921 C.3     1  UNL1        0.0019
     28 C          61.9683   84.4453    6.1670 C.3     1  UNL1        0.0257
@<TRIPOS>BOND
     1    27    28    1
     2    28    26    1
     3    26    23    1
     4    23    24    2
     5    23    25    2
     6    23     1    1
     7     1     2    2
     8     2     3    1
     9     3     4    2
    10     4     5    1
    11     5     6    2
    12     6    10    1
    13    10    11   ar
    14    11    12   ar
    15    12    13   ar
    16    13    14   ar
    17    14    17    1
    18    17    18   ar
    19    18    19   ar
    20    19    20   ar
    21    20    21   ar
    22    21    22   ar
    23    14    15   ar
    24    15    16    2
    25     6     7    1
    26     7     8    2
    27     8     9    1
    28     9     1    1
    29     8     4    1
    30    15    10   ar
    31    22    17   ar
@<TRIPOS>MOLECULE
*****
 28 31 0 0 0
SMALL
GASTEIGER

@<TRIPOS>ATOM
      1 C          66.6949   92.3697   14.2163 C.2     1  UNL1        0.0919
      2 C          66.5671   93.3161   13.0596 C.2     1  UNL1        0.0183
      3 C          65.5122   93.0889   12.0177 C.2     1  UNL1        0.0511
      4 C          64.5851   91.9154   12.1324 C.2     1  UNL1        0.2322
      5 N          63.4574   91.4386   11.2659 N.2     1  UNL1       -0.0307
      6 C          62.8881   90.1976   11.8871 C.2     1  UNL1        0.3799
      7 N          63.6641   89.9073   13.1376 N.2     1  UNL1       -0.0345
      8 C          64.7129   90.9690   13.2892 C.2     1  UNL1        0.2191
      9 C          65.7678   91.1962   14.3311 C.3     1  UNL1        0.1226
     10 C          61.7438   89.3889   11.3518 C.ar    1  UNL1        0.1447
     11 C          60.3599   89.5990   11.8911 C.ar    1  UNL1        0.0141
     12 C          59.2156   88.7903   11.3559 C.ar    1  UNL1        0.0195
     13 C          59.4551   87.7715   10.2813 C.ar    1  UNL1        0.0829
     14 N          60.8390   87.5614    9.7420 N.ar    1  UNL1       -0.2729
     15 C          61.9833   88.3701   10.2773 C.ar    1  UNL1        0.2722
     16 O          63.3671   88.1600    9.7380 O.2     1  UNL1       -0.2664
     17 C          61.0785   86.5426    8.6674 C.ar    1  UNL1        0.0669
     18 C          62.4205   85.8841    8.5439 C.ar    1  UNL1        0.0176
     19 C          62.6599   84.8653    7.4694 C.ar    1  UNL1        0.0015
     20 C          61.5574   84.5051    6.5183 C.ar    1  UNL1        0.0001
     21 C          60.2153   85.1636    6.6418 C.ar    1  UNL1        0.0015
     22 C          59.9759   86.1823    7.7164 C.ar    1  UNL1        0.0176
     23 S          67.7498   92.5969   15.2582 S.O2    1  UNL1        0.0054
     24 O          68.8135   92.4768   14.2075 O.2     1  UNL1       -0.1689
     25 O          66.6860   92.7171   16.3090 O.2     1  UNL1       -0.1689
     26 C          68.8046   92.8241   16.3002 C.3     1  UNL1        0.1556
     27 C          69.4203   95.3430   16.1378 C.3     1  UNL1        0.0019
     28 C          69.8310   93.9006   16.1061 C.3     1  UNL1        0.0257
@<TRIPOS>BOND
     1    27    28    1
     2    28    26    1
     3    26    23    1
     4    23    24    2
     5    23    25    2
     6    23     1    1
     7     1     2    2
     8     2     3    1
     9     3     4    2
    10     4     5    1
    11     5     6    2
    12     6    10    1
    13    10    11   ar
    14    11    12   ar
    15    12    13   ar
    16    13    14   ar
    17    14    17    1
    18    17    18   ar
    19    18    19   ar
    20    19    20   ar
    21    20    21   ar
    22    21    22   ar
    23    14    15   ar
    24    15    16    2
    25     6     7    1
    26     7     8    2
    27     8     9    1
    28     9     1    1
    29     8     4    1
    30    15    10   ar
    31    22    17   ar
@<TRIPOS>MOLECULE
*****
 28 31 0 0 0
SMALL
GASTEIGER

@<TRIPOS>ATOM
      1 C          71.2336   72.5772   15.2221 C.2     1  UNL1        0.0919
      2 C          70.1394   73.2590   15.9888 C.2     1  UNL1        0.0183
      3 C          69.9727   74.7468   15.8954 C.2     1  UNL1        0.0511
      4 C          70.9003   75.5528   15.0353 C.2     1  UNL1        0.2322
      5 N          70.9801   77.0230   14.7486 N.2     1  UNL1       -0.0307
      6 C          72.1236   77.2499   13.8048 C.2     1  UNL1        0.3799
      7 N          72.7506   75.9200   13.5081 N.2     1  UNL1       -0.0345
      8 C          71.9946   74.8711   14.2686 C.2     1  UNL1        0.2191
      9 C          72.1612   73.3833   14.3620 C.3     1  UNL1        0.1226
     10 C          72.5630   78.5743   13.2543 C.ar    1  UNL1        0.1447
     11 C          73.1929   79.5911   14.1595 C.ar    1  UNL1        0.0141
     12 C          73.6323   80.9154   13.6091 C.ar    1  UNL1        0.0195
     13 C          73.4416   81.2230   12.1534 C.ar    1  UNL1        0.0829
     14 N          72.8117   80.2063   11.2482 N.ar    1  UNL1       -0.2729
     15 C          72.3723   78.8820   11.7986 C.ar    1  UNL1        0.2722
     16 O          71.7424   77.8652   10.8934 O.2     1  UNL1       -0.2664
     17 C          72.6211   80.5140    9.7924 C.ar    1  UNL1        0.0669
     18 C          73.0700   79.5303    8.7529 C.ar    1  UNL1        0.0176
     19 C          72.8794   79.8380    7.2973 C.ar    1  UNL1        0.0015
     20 C          72.2398   81.1295    6.8812 C.ar    1  UNL1        0.0001
     21 C          71.7909   82.1132    7.9207 C.ar    1  UNL1        0.0015
     22 C          71.9816   81.8055    9.3763 C.ar    1  UNL1        0.0176
     23 S          71.4002   71.0895   15.3155 S.O2    1  UNL1        0.0054
     24 O          71.1069   71.1489   16.7853 O.2     1  UNL1       -0.1689
     25 O          71.6936   71.0301   13.8456 O.2     1  UNL1       -0.1689
     26 C          71.5669   69.6017   15.4089 C.3     1  UNL1        0.1556
     27 C          73.4289   68.3130   16.6825 C.3     1  UNL1        0.0019
     28 C          72.0869   68.9831   16.6725 C.3     1  UNL1        0.0257
@<TRIPOS>BOND
     1    27    28    1
     2    28    26    1
     3    26    23    1
     4    23    24    2
     5    23    25    2
     6    23     1    1
     7     1     2    2
     8     2     3    1
     9     3     4    2
    10     4     5    1
    11     5     6    2
    12     6    10    1
    13    10    11   ar
    14    11    12   ar
    15    12    13   ar
    16    13    14   ar
    17    14    17    1
    18    17    18   ar
    19    18    19   ar
    20    19    20   ar
    21    20    21   ar
    22    21    22   ar
    23    14    15   ar
    24    15    16    2
    25     6     7    1
    26     7     8    2
    27     8     9    1
    28     9     1    1
    29     8     4    1
    30    15    10   ar
    31    22    17   ar
