@<TRIPOS>MOLECULE
*****
 33 35 0 0 0
SMALL
GASTEIGER

@<TRIPOS>ATOM
      1 N          63.8437   87.7312   14.4302 N.3     1  UNL1       -0.1512
      2 C          64.3879   88.6923   13.4152 C.3     1  UNL1        0.1223
      3 C          64.4190   90.0563   14.0384 C.3     1  UNL1        0.1784
      4 C          63.8938   89.9383   15.4385 C.3     1  UNL1        0.1408
      5 O          63.4224   90.1290   16.8496 O.3     1  UNL1       -0.3822
      6 C          63.5383   88.5013   15.6806 C.3     1  UNL1        0.1257
      7 H          63.5086   91.0633   17.0959 H       1  UNL1        0.2104
      8 C          64.1508   91.4151   15.4914 C.3     1  UNL1        0.0956
      9 N          63.7751   92.1985   16.7141 N.3     1  UNL1       -0.3191
     10 H          62.7606   92.1979   16.8198 H       1  UNL1        0.1189
     11 H          64.1064   93.1584   16.6180 H       1  UNL1        0.1189
     12 S          63.6404   86.2586   14.2298 S.O2    1  UNL1        0.0642
     13 O          64.2028   85.9952   15.5952 O.2     1  UNL1       -0.1527
     14 O          63.0780   86.5219   12.8644 O.2     1  UNL1       -0.1527
     15 C          63.0307   81.8408   13.6288 C.ar    1  UNL1        0.0694
     16 C          64.0691   82.5702   12.8290 C.ar    1  UNL1        0.0117
     17 C          64.2723   84.0428   13.0294 C.ar    1  UNL1        0.0215
     18 C          63.4372   84.7860   14.0295 C.ar    1  UNL1        0.1327
     19 C          62.3989   84.0565   14.8293 C.ar    1  UNL1        0.0769
     20 CL         61.5637   84.7997   15.8295 Cl      1  UNL1       -0.0808
     21 C          62.1957   82.5839   14.6290 C.ar    1  UNL1        0.0230
     22 N          62.6243   78.8956   13.2282 N.1     1  UNL1       -0.1908
     23 C          62.8275   80.3682   13.4285 C.1     1  UNL1        0.1004
     24 S          64.8920   91.3170   13.3775 S.O2    1  UNL1        0.0108
     25 O          66.2422   91.1402   14.0065 O.2     1  UNL1       -0.1686
     26 O          63.5418   91.4939   12.7484 O.2     1  UNL1       -0.1686
     27 C          65.3651   92.5777   12.7165 C.ar    1  UNL1        0.1058
     28 C          65.0870   92.8114   11.2612 C.ar    1  UNL1        0.0192
     29 C          65.5600   94.0721   10.6002 C.ar    1  UNL1        0.0127
     30 C          66.3112   95.0991   11.3946 C.ar    1  UNL1        0.0578
     31 CL         66.7843   96.3598   10.7337 Cl      1  UNL1       -0.0822
     32 C          66.5893   94.8653   12.8500 C.ar    1  UNL1        0.0127
     33 C          66.1162   93.6046   13.5109 C.ar    1  UNL1        0.0192
@<TRIPOS>BOND
     1    22    23    3
     2    23    15    1
     3    15    16   ar
     4    16    17   ar
     5    17    18   ar
     6    18    12    1
     7    12    13    2
     8    12    14    2
     9    12     1    1
    10     1     2    1
    11     2     3    1
    12     3    24    1
    13    24    25    2
    14    24    26    2
    15    24    27    1
    16    27    28   ar
    17    28    29   ar
    18    29    30   ar
    19    30    31    1
    20    30    32   ar
    21    32    33   ar
    22     3     4    1
    23     4     5    1
    24     4     8    1
    25     8     9    1
    26     4     6    1
    27    18    19   ar
    28    19    20    1
    29    19    21   ar
    30    21    15   ar
    31     6     1    1
    32    33    27   ar
    33     5     7    1
    34     9    10    1
    35     9    11    1
@<TRIPOS>MOLECULE
*****
 33 35 0 0 0
SMALL
GASTEIGER

@<TRIPOS>ATOM
      1 N          64.2987   89.1372   14.3273 N.3     1  UNL1       -0.1512
      2 C          64.2409   87.7979   13.6542 C.3     1  UNL1        0.1223
      3 C          63.7440   86.7972   14.6550 C.3     1  UNL1        0.1784
      4 C          63.4946   87.5180   15.9467 C.3     1  UNL1        0.1408
      5 O          63.1589   87.9557   17.3415 O.3     1  UNL1       -0.3822
      6 C          63.8375   88.9642   15.7441 C.3     1  UNL1        0.1257
      7 H          62.8548   87.1915   17.8558 H       1  UNL1        0.2104
      8 C          63.0816   86.1634   16.4408 C.3     1  UNL1        0.0956
      9 N          61.8019   86.0024   17.2066 N.3     1  UNL1       -0.3191
     10 H          61.8745   86.4942   18.0973 H       1  UNL1        0.1189
     11 H          61.6306   85.0117   17.3782 H       1  UNL1        0.1189
     12 S          64.7403   90.4236   13.6946 S.O2    1  UNL1        0.0642
     13 O          66.0110   90.3787   14.4903 O.2     1  UNL1       -0.1527
     14 O          63.4695   90.4684   12.8989 O.2     1  UNL1       -0.1527
     15 C          66.0648   94.2827   11.7967 C.ar    1  UNL1        0.0694
     16 C          65.3622   93.2444   10.9732 C.ar    1  UNL1        0.0117
     17 C          64.9207   91.9580   11.6059 C.ar    1  UNL1        0.0215
     18 C          65.1818   91.7100   13.0620 C.ar    1  UNL1        0.1327
     19 C          65.8844   92.7483   13.8854 C.ar    1  UNL1        0.0769
     20 CL         66.1455   92.5003   15.3416 Cl      1  UNL1       -0.0808
     21 C          66.3259   94.0347   13.2528 C.ar    1  UNL1        0.0230
     22 N          66.9479   96.8555   10.5314 N.1     1  UNL1       -0.1908
     23 C          66.5064   95.5691   11.1640 C.1     1  UNL1        0.1004
     24 S          63.5334   85.3328   14.4077 S.O2    1  UNL1        0.0108
     25 O          62.0975   85.5974   14.0638 O.2     1  UNL1       -0.1686
     26 O          64.9692   85.0682   14.7515 O.2     1  UNL1       -0.1686
     27 C          63.3227   83.8684   14.1603 C.ar    1  UNL1        0.1058
     28 C          62.1169   83.1782   14.7254 C.ar    1  UNL1        0.0192
     29 C          61.9061   81.7138   14.4781 C.ar    1  UNL1        0.0127
     30 C          62.9014   80.9396   13.6656 C.ar    1  UNL1        0.0578
     31 CL         62.6908   79.4753   13.4182 Cl      1  UNL1       -0.0822
     32 C          64.1073   81.6300   13.1004 C.ar    1  UNL1        0.0127
     33 C          64.3179   83.0943   13.3478 C.ar    1  UNL1        0.0192
@<TRIPOS>BOND
     1    22    23    3
     2    23    15    1
     3    15    16   ar
     4    16    17   ar
     5    17    18   ar
     6    18    12    1
     7    12    13    2
     8    12    14    2
     9    12     1    1
    10     1     2    1
    11     2     3    1
    12     3    24    1
    13    24    25    2
    14    24    26    2
    15    24    27    1
    16    27    28   ar
    17    28    29   ar
    18    29    30   ar
    19    30    31    1
    20    30    32   ar
    21    32    33   ar
    22     3     4    1
    23     4     5    1
    24     4     8    1
    25     8     9    1
    26     4     6    1
    27    18    19   ar
    28    19    20    1
    29    19    21   ar
    30    21    15   ar
    31     6     1    1
    32    33    27   ar
    33     5     7    1
    34     9    10    1
    35     9    11    1
@<TRIPOS>MOLECULE
*****
 33 35 0 0 0
SMALL
GASTEIGER

@<TRIPOS>ATOM
      1 N          63.6491   87.1136   14.3100 N.3     1  UNL1       -0.1512
      2 C          64.1734   88.0955   13.3045 C.3     1  UNL1        0.1223
      3 C          64.2610   89.4374   13.9691 C.3     1  UNL1        0.1784
      4 C          63.7908   89.2848   15.3853 C.3     1  UNL1        0.1408
      5 O          63.3818   89.4392   16.8201 O.3     1  UNL1       -0.3822
      6 C          63.4126   87.8487   15.5960 C.3     1  UNL1        0.1257
      7 H          63.4992   90.3628   17.0922 H       1  UNL1        0.2104
      8 C          64.0834   90.7532   15.4745 C.3     1  UNL1        0.0956
      9 N          63.4725   91.5745   16.5710 N.3     1  UNL1       -0.3191
     10 H          62.4608   91.6093   16.4463 H       1  UNL1        0.1189
     11 H          63.8519   92.5207   16.5388 H       1  UNL1        0.1189
     12 S          63.4043   85.6531   14.0714 S.O2    1  UNL1        0.0642
     13 O          64.2955   85.3145   15.2294 O.2     1  UNL1       -0.1527
     14 O          62.5130   85.9917   12.9134 O.2     1  UNL1       -0.1527
     15 C          62.6697   81.2715   13.3555 C.ar    1  UNL1        0.0694
     16 C          62.2892   81.8912   14.6674 C.ar    1  UNL1        0.0117
     17 C          62.5341   83.3517   14.9060 C.ar    1  UNL1        0.0215
     18 C          63.1594   84.1925   13.8328 C.ar    1  UNL1        0.1327
     19 C          63.5399   83.5728   12.5209 C.ar    1  UNL1        0.0769
     20 CL         64.1653   84.4136   11.4475 Cl      1  UNL1       -0.0808
     21 C          63.2951   82.1123   12.2823 C.ar    1  UNL1        0.0230
     22 N          62.1800   78.3505   12.8783 N.1     1  UNL1       -0.1908
     23 C          62.4249   79.8110   13.1169 C.1     1  UNL1        0.1004
     24 S          64.7355   90.7086   13.3297 S.O2    1  UNL1        0.0108
     25 O          65.9888   90.6545   14.1520 O.2     1  UNL1       -0.1686
     26 O          63.4822   90.7628   12.5073 O.2     1  UNL1       -0.1686
     27 C          65.2099   91.9798   12.6903 C.ar    1  UNL1        0.1058
     28 C          66.0379   92.9517   13.4776 C.ar    1  UNL1        0.0192
     29 C          66.5124   94.2230   12.8383 C.ar    1  UNL1        0.0127
     30 C          66.1589   94.5223   11.4116 C.ar    1  UNL1        0.0578
     31 CL         66.6334   95.7936   10.7721 Cl      1  UNL1       -0.0822
     32 C          65.3309   93.5504   10.6242 C.ar    1  UNL1        0.0127
     33 C          64.8565   92.2791   11.2636 C.ar    1  UNL1        0.0192
@<TRIPOS>BOND
     1    22    23    3
     2    23    15    1
     3    15    16   ar
     4    16    17   ar
     5    17    18   ar
     6    18    12    1
     7    12    13    2
     8    12    14    2
     9    12     1    1
    10     1     2    1
    11     2     3    1
    12     3    24    1
    13    24    25    2
    14    24    26    2
    15    24    27    1
    16    27    28   ar
    17    28    29   ar
    18    29    30   ar
    19    30    31    1
    20    30    32   ar
    21    32    33   ar
    22     3     4    1
    23     4     5    1
    24     4     8    1
    25     8     9    1
    26     4     6    1
    27    18    19   ar
    28    19    20    1
    29    19    21   ar
    30    21    15   ar
    31     6     1    1
    32    33    27   ar
    33     5     7    1
    34     9    10    1
    35     9    11    1
@<TRIPOS>MOLECULE
*****
 33 35 0 0 0
SMALL
GASTEIGER

@<TRIPOS>ATOM
      1 N          63.4034   90.1588   12.6870 N.3     1  UNL1       -0.1512
      2 C          63.5847   89.2218   11.5298 C.3     1  UNL1        0.1223
      3 C          62.2387   88.6684   11.1661 C.3     1  UNL1        0.1784
      4 C          61.2256   89.2635   12.0985 C.3     1  UNL1        0.1408
      5 O          60.0088   89.6844   12.8681 O.3     1  UNL1       -0.3822
      6 C          61.9454   90.1846   13.0385 C.3     1  UNL1        0.1257
      7 H          59.2273   89.2374   12.5071 H       1  UNL1        0.2104
      8 C          60.2515   88.4304   11.3195 C.3     1  UNL1        0.0956
      9 N          58.8234   88.3310   11.7675 N.3     1  UNL1       -0.3191
     10 H          58.7814   87.8482   12.6650 H       1  UNL1        0.1189
     11 H          58.2855   87.8095   11.0753 H       1  UNL1        0.1189
     12 S          64.4894   90.9340   13.3723 S.O2    1  UNL1        0.0642
     13 O          64.1383   92.1447   12.5592 O.2     1  UNL1       -0.1527
     14 O          64.8405   89.7234   14.1853 O.2     1  UNL1       -0.1527
     15 C          67.7474   93.2596   15.4282 C.ar    1  UNL1        0.0694
     16 C          67.8794   92.9070   13.9763 C.ar    1  UNL1        0.0117
     17 C          66.7934   92.1318   13.2910 C.ar    1  UNL1        0.0215
     18 C          65.5754   91.7092   14.0576 C.ar    1  UNL1        0.1327
     19 C          65.4434   92.0618   15.5095 C.ar    1  UNL1        0.0769
     20 CL         64.2253   91.6392   16.2763 Cl      1  UNL1       -0.0808
     21 C          66.5294   92.8370   16.1949 C.ar    1  UNL1        0.0230
     22 N          69.9194   94.8100   16.7989 N.1     1  UNL1       -0.1908
     23 C          68.8334   94.0348   16.1136 C.1     1  UNL1        0.1004
     24 S          61.9557   87.6915   10.0636 S.O2    1  UNL1        0.0108
     25 O          62.4310   86.5683   10.9368 O.2     1  UNL1       -0.1686
     26 O          61.4804   88.8147    9.1904 O.2     1  UNL1       -0.1686
     27 C          61.6726   86.7146    8.9611 C.ar    1  UNL1        0.1058
     28 C          60.3038   86.6478    8.3514 C.ar    1  UNL1        0.0192
     29 C          60.0206   85.6709    7.2488 C.ar    1  UNL1        0.0127
     30 C          61.1064   84.7608    6.7561 C.ar    1  UNL1        0.0578
     31 CL         60.8233   83.7839    5.6536 Cl      1  UNL1       -0.0822
     32 C          62.4753   84.8276    7.3659 C.ar    1  UNL1        0.0127
     33 C          62.7583   85.8045    8.4684 C.ar    1  UNL1        0.0192
@<TRIPOS>BOND
     1    22    23    3
     2    23    15    1
     3    15    16   ar
     4    16    17   ar
     5    17    18   ar
     6    18    12    1
     7    12    13    2
     8    12    14    2
     9    12     1    1
    10     1     2    1
    11     2     3    1
    12     3    24    1
    13    24    25    2
    14    24    26    2
    15    24    27    1
    16    27    28   ar
    17    28    29   ar
    18    29    30   ar
    19    30    31    1
    20    30    32   ar
    21    32    33   ar
    22     3     4    1
    23     4     5    1
    24     4     8    1
    25     8     9    1
    26     4     6    1
    27    18    19   ar
    28    19    20    1
    29    19    21   ar
    30    21    15   ar
    31     6     1    1
    32    33    27   ar
    33     5     7    1
    34     9    10    1
    35     9    11    1
@<TRIPOS>MOLECULE
*****
 33 35 0 0 0
SMALL
GASTEIGER

@<TRIPOS>ATOM
      1 N          63.9458   88.5467   13.2378 N.3     1  UNL1       -0.1512
      2 C          64.0872   87.0972   13.5968 C.3     1  UNL1        0.1223
      3 C          63.0631   86.3249   12.8192 C.3     1  UNL1        0.1784
      4 C          62.2886   87.2971   11.9795 C.3     1  UNL1        0.1408
      5 O          61.3596   88.0137   11.0450 O.3     1  UNL1       -0.3822
      6 C          62.8342   88.6702   12.2382 C.3     1  UNL1        0.1257
      7 H          60.7653   87.3723   10.6250 H       1  UNL1        0.2104
      8 C          61.5489   86.0739   11.5254 C.3     1  UNL1        0.0956
      9 N          61.1575   85.9256   10.0850 N.3     1  UNL1       -0.3191
     10 H          60.4703   86.6398    9.8442 H       1  UNL1        0.1189
     11 H          60.7534   85.0010    9.9359 H       1  UNL1        0.1189
     12 S          64.7710   89.6746   13.7826 S.O2    1  UNL1        0.0642
     13 O          64.2828   90.5651   12.6787 O.2     1  UNL1       -0.1527
     14 O          65.2593   88.7840   14.8865 O.2     1  UNL1       -0.1527
     15 C          67.2468   93.0582   15.4172 C.ar    1  UNL1        0.0694
     16 C          67.7143   92.3024   14.2088 C.ar    1  UNL1        0.0117
     17 C          66.8890   91.1745   13.6640 C.ar    1  UNL1        0.0215
     18 C          65.5963   90.8024   14.3275 C.ar    1  UNL1        0.1327
     19 C          65.1288   91.5582   15.5358 C.ar    1  UNL1        0.0769
     20 CL         63.8360   91.1861   16.1994 Cl      1  UNL1       -0.0808
     21 C          65.9540   92.6861   16.0807 C.ar    1  UNL1        0.0230
     22 N          68.8973   95.3139   16.5069 N.1     1  UNL1       -0.1908
     23 C          68.0720   94.1861   15.9620 C.1     1  UNL1        0.1004
     24 S          62.8507   84.8410   12.8719 S.O2    1  UNL1        0.0108
     25 O          62.2126   84.9803   14.2223 O.2     1  UNL1       -0.1686
     26 O          63.4887   84.7016   11.5216 O.2     1  UNL1       -0.1686
     27 C          62.6382   83.3570   12.9247 C.ar    1  UNL1        0.1058
     28 C          62.9615   82.5102   11.7296 C.ar    1  UNL1        0.0192
     29 C          62.7492   81.0262   11.7822 C.ar    1  UNL1        0.0127
     30 C          62.2135   80.3891   13.0301 C.ar    1  UNL1        0.0578
     31 CL         62.0011   78.9052   13.0828 Cl      1  UNL1       -0.0822
     32 C          61.8902   81.2360   14.2252 C.ar    1  UNL1        0.0127
     33 C          62.1026   82.7200   14.1725 C.ar    1  UNL1        0.0192
@<TRIPOS>BOND
     1    22    23    3
     2    23    15    1
     3    15    16   ar
     4    16    17   ar
     5    17    18   ar
     6    18    12    1
     7    12    13    2
     8    12    14    2
     9    12     1    1
    10     1     2    1
    11     2     3    1
    12     3    24    1
    13    24    25    2
    14    24    26    2
    15    24    27    1
    16    27    28   ar
    17    28    29   ar
    18    29    30   ar
    19    30    31    1
    20    30    32   ar
    21    32    33   ar
    22     3     4    1
    23     4     5    1
    24     4     8    1
    25     8     9    1
    26     4     6    1
    27    18    19   ar
    28    19    20    1
    29    19    21   ar
    30    21    15   ar
    31     6     1    1
    32    33    27   ar
    33     5     7    1
    34     9    10    1
    35     9    11    1
@<TRIPOS>MOLECULE
*****
 33 35 0 0 0
SMALL
GASTEIGER

@<TRIPOS>ATOM
      1 N          62.2958   86.9848   11.9542 N.3     1  UNL1       -0.1512
      2 C          63.4144   87.9740   12.0962 C.3     1  UNL1        0.1223
      3 C          62.8991   89.3196   11.6794 C.3     1  UNL1        0.1784
      4 C          61.4619   89.1621   11.2797 C.3     1  UNL1        0.1408
      5 O          60.0406   89.3127   10.8247 O.3     1  UNL1       -0.3822
      6 C          61.0891   87.7191   11.4496 C.3     1  UNL1        0.1257
      7 H          59.8717   90.2395   10.5933 H       1  UNL1        0.2104
      8 C          61.5377   90.6365   11.0147 C.3     1  UNL1        0.0956
      9 N          60.2787   91.4445   10.9055 N.3     1  UNL1       -0.3191
     10 H          59.7558   91.1496   10.0809 H       1  UNL1        0.1189
     11 H          60.5154   92.4332   10.8224 H       1  UNL1        0.1189
     12 S          62.3707   85.5188   12.2627 S.O2    1  UNL1        0.0642
     13 O          63.3221   85.8039   13.3867 O.2     1  UNL1       -0.1527
     14 O          61.4192   85.2337   11.1387 O.2     1  UNL1       -0.1527
     15 C          62.5954   81.1207   13.1881 C.ar    1  UNL1        0.0694
     16 C          62.0296   82.0722   14.2003 C.ar    1  UNL1        0.0117
     17 C          61.9547   83.5382   13.8918 C.ar    1  UNL1        0.0215
     18 C          62.4456   84.0528   12.5712 C.ar    1  UNL1        0.1327
     19 C          63.0114   83.1013   11.5590 C.ar    1  UNL1        0.0769
     20 CL         63.5023   83.6159   10.2383 Cl      1  UNL1       -0.0808
     21 C          63.0863   81.6353   11.8675 C.ar    1  UNL1        0.0230
     22 N          62.7452   78.1887   13.8051 N.1     1  UNL1       -0.1908
     23 C          62.6703   79.6547   13.4966 C.1     1  UNL1        0.1004
     24 S          63.6833   90.5982   11.6647 S.O2    1  UNL1        0.0108
     25 O          63.5042   90.6910   10.1783 O.2     1  UNL1       -0.1686
     26 O          63.8624   90.5054   13.1511 O.2     1  UNL1       -0.1686
     27 C          64.4675   91.8768   11.6501 C.ar    1  UNL1        0.1058
     28 C          64.5106   92.7159   10.4075 C.ar    1  UNL1        0.0192
     29 C          65.2948   93.9946   10.3927 C.ar    1  UNL1        0.0127
     30 C          66.0358   94.4341   11.6206 C.ar    1  UNL1        0.0578
     31 CL         66.8200   95.7127   11.6060 Cl      1  UNL1       -0.0822
     32 C          65.9926   93.5949   12.8633 C.ar    1  UNL1        0.0127
     33 C          65.2084   92.3163   12.8779 C.ar    1  UNL1        0.0192
@<TRIPOS>BOND
     1    22    23    3
     2    23    15    1
     3    15    16   ar
     4    16    17   ar
     5    17    18   ar
     6    18    12    1
     7    12    13    2
     8    12    14    2
     9    12     1    1
    10     1     2    1
    11     2     3    1
    12     3    24    1
    13    24    25    2
    14    24    26    2
    15    24    27    1
    16    27    28   ar
    17    28    29   ar
    18    29    30   ar
    19    30    31    1
    20    30    32   ar
    21    32    33   ar
    22     3     4    1
    23     4     5    1
    24     4     8    1
    25     8     9    1
    26     4     6    1
    27    18    19   ar
    28    19    20    1
    29    19    21   ar
    30    21    15   ar
    31     6     1    1
    32    33    27   ar
    33     5     7    1
    34     9    10    1
    35     9    11    1
