@<TRIPOS>MOLECULE
*****
 33 36 0 0 0
SMALL
GASTEIGER

@<TRIPOS>ATOM
      1 N          62.5634   87.7435    9.7056 N.am    1  UNL1       -0.2684
      2 C          62.8481   87.3427   11.1226 C.2     1  UNL1        0.3078
      3 O          62.6012   85.9313   11.5668 O.2     1  UNL1       -0.2522
      4 N          63.3797   88.3531   12.0955 N.am    1  UNL1       -0.2605
      5 C          63.6645   87.9521   13.5126 C.3     1  UNL1        0.1164
      6 C          64.1961   88.9625   14.4856 C.3     1  UNL1        0.1137
      7 N          64.4429   90.3737   14.0413 N.pl3   1  UNL1       -0.2901
      8 C          64.1582   90.7747   12.6242 C.3     1  UNL1        0.0941
      9 C          64.4051   92.1860   12.1800 C.3     1  UNL1        0.0233
     10 C          63.6266   89.7643   11.6513 C.3     1  UNL1        0.1147
     11 H          62.7254   88.6698    9.4140 H       1  UNL1        0.1564
     12 C          64.9746   91.3842   15.0142 C.ar    1  UNL1        0.1554
     13 N          64.0755   91.9518   16.0724 N.ar    1  UNL1       -0.1974
     14 C          64.6071   92.9622   17.0452 C.ar    1  UNL1        0.2162
     15 N          63.7080   93.5298   18.1034 N.pl3   1  UNL1       -0.3274
     16 N          66.0376   93.4051   16.9600 N.ar    1  UNL1       -0.1949
     17 C          66.9367   92.8375   15.9019 C.ar    1  UNL1        0.1685
     18 C          66.4051   91.8271   14.9290 C.ar    1  UNL1        0.1486
     19 N          67.5200   91.4464   14.0005 N.ar    1  UNL1       -0.2194
     20 C          68.7406   92.2215   14.3996 C.ar    1  UNL1        0.1798
     21 N          68.3801   93.0813   15.5747 N.ar    1  UNL1       -0.2923
     22 C          69.3013   94.0200   16.2959 C.3     1  UNL1        0.1335
     23 H          62.7691   93.2391   18.1593 H       1  UNL1        0.1452
     24 H          64.0569   94.1929   18.7419 H       1  UNL1        0.1452
     25 C          60.9685   84.7125    6.7868 C.ar    1  UNL1        0.1385
     26 C          62.4150   84.6835    7.1829 C.ar    1  UNL1        0.0382
     27 C          62.9466   85.6938    8.1558 C.ar    1  UNL1        0.0175
     28 C          62.0317   86.7332    8.7327 C.ar    1  UNL1        0.0478
     29 C          60.5853   86.7622    8.3366 C.ar    1  UNL1       -0.0053
     30 C          59.6704   87.8015    8.9135 C.3     1  UNL1        0.0324
     31 C          60.0537   85.7518    7.3637 C.ar    1  UNL1        0.0339
     32 C          61.1354   83.4815    4.5050 C.3     1  UNL1        0.2525
     33 O          60.4368   83.7021    5.8139 O.3     1  UNL1       -0.4714
@<TRIPOS>BOND
     1    32    33    1
     2    33    25    1
     3    25    26   ar
     4    26    27   ar
     5    27    28   ar
     6    28     1    1
     7     1     2   am
     8     2     3    2
     9     2     4   am
    10     4     5    1
    11     5     6    1
    12     6     7    1
    13     7    12    1
    14    12    13   ar
    15    13    14   ar
    16    14    15    1
    17    14    16   ar
    18    16    17   ar
    19    17    18   ar
    20    18    19   ar
    21    19    20   ar
    22    20    21   ar
    23    21    22    1
    24     7     8    1
    25     8     9    1
    26     8    10    1
    27    28    29   ar
    28    29    30    1
    29    29    31   ar
    30    31    25   ar
    31    10     4    1
    32    18    12   ar
    33    21    17   ar
    34     1    11    1
    35    15    23    1
    36    15    24    1
@<TRIPOS>MOLECULE
*****
 33 36 0 0 0
SMALL
GASTEIGER

@<TRIPOS>ATOM
      1 N          63.5112   85.5119   13.8816 N.am    1  UNL1       -0.2684
      2 C          63.0269   86.6113   12.9835 C.2     1  UNL1        0.3078
      3 O          61.9215   86.3477   12.0043 O.2     1  UNL1       -0.2522
      4 N          63.6479   87.9744   13.0644 N.am    1  UNL1       -0.2605
      5 C          63.1636   89.0738   12.1663 C.3     1  UNL1        0.1164
      6 C          63.7846   90.4368   12.2473 C.3     1  UNL1        0.1137
      7 N          64.8899   90.7003   13.2264 N.pl3   1  UNL1       -0.2901
      8 C          65.3742   89.6009   14.1246 C.3     1  UNL1        0.0941
      9 C          66.4796   89.8645   15.1037 C.3     1  UNL1        0.0233
     10 C          64.7532   88.2379   14.0436 C.3     1  UNL1        0.1147
     11 H          64.2367   85.6849   14.5242 H       1  UNL1        0.1564
     12 C          65.5110   92.0633   13.3074 C.ar    1  UNL1        0.1554
     13 N          66.1554   92.5192   14.5830 N.ar    1  UNL1       -0.1974
     14 C          66.7765   93.8821   14.6641 C.ar    1  UNL1        0.2162
     15 N          67.4209   94.3381   15.9396 N.pl3   1  UNL1       -0.3274
     16 N          66.7531   94.7893   13.4697 N.ar    1  UNL1       -0.1949
     17 C          66.1087   94.3334   12.1942 C.ar    1  UNL1        0.1685
     18 C          65.4877   92.9704   12.1131 C.ar    1  UNL1        0.1486
     19 N          64.9291   92.7970   10.7318 N.ar    1  UNL1       -0.2194
     20 C          65.2050   94.0528    9.9593 C.ar    1  UNL1        0.1798
     21 N          65.9340   95.0024   10.8630 N.ar    1  UNL1       -0.2923
     22 C          66.4056   96.3791   10.4995 C.3     1  UNL1        0.1335
     23 H          67.4362   93.7427   16.7236 H       1  UNL1        0.1452
     24 H          67.8285   95.2326   15.9928 H       1  UNL1        0.1452
     25 C          61.6482   81.4229   13.6386 C.ar    1  UNL1        0.1385
     26 C          61.4219   82.2794   14.8490 C.ar    1  UNL1        0.0382
     27 C          62.0429   83.6425   14.9300 C.ar    1  UNL1        0.0175
     28 C          62.8902   84.1489   13.8006 C.ar    1  UNL1        0.0478
     29 C          63.1165   83.2923   12.5902 C.ar    1  UNL1       -0.0053
     30 C          63.9638   83.7988   11.4608 C.3     1  UNL1        0.0324
     31 C          62.4955   81.9293   12.5092 C.ar    1  UNL1        0.0339
     32 C          59.6942   79.8038   14.1961 C.3     1  UNL1        0.2525
     33 O          61.0272   80.0598   13.5576 O.3     1  UNL1       -0.4714
@<TRIPOS>BOND
     1    32    33    1
     2    33    25    1
     3    25    26   ar
     4    26    27   ar
     5    27    28   ar
     6    28     1    1
     7     1     2   am
     8     2     3    2
     9     2     4   am
    10     4     5    1
    11     5     6    1
    12     6     7    1
    13     7    12    1
    14    12    13   ar
    15    13    14   ar
    16    14    15    1
    17    14    16   ar
    18    16    17   ar
    19    17    18   ar
    20    18    19   ar
    21    19    20   ar
    22    20    21   ar
    23    21    22    1
    24     7     8    1
    25     8     9    1
    26     8    10    1
    27    28    29   ar
    28    29    30    1
    29    29    31   ar
    30    31    25   ar
    31    10     4    1
    32    18    12   ar
    33    21    17   ar
    34     1    11    1
    35    15    23    1
    36    15    24    1
@<TRIPOS>MOLECULE
*****
 33 36 0 0 0
SMALL
GASTEIGER

@<TRIPOS>ATOM
      1 N          60.7830   90.1801    6.9021 N.am    1  UNL1       -0.2684
      2 C          59.7657   90.8380    6.0179 C.2     1  UNL1        0.3078
      3 O          58.3376   90.9408    6.4652 O.2     1  UNL1       -0.2522
      4 N          60.1763   91.3932    4.6862 N.am    1  UNL1       -0.2605
      5 C          59.1589   92.0511    3.8020 C.3     1  UNL1        0.1164
      6 C          59.5695   92.6063    2.4703 C.3     1  UNL1        0.1137
      7 N          60.9975   92.5035    2.0231 N.pl3   1  UNL1       -0.2901
      8 C          62.0149   91.8455    2.9073 C.3     1  UNL1        0.0941
      9 C          63.4429   91.7428    2.4600 C.3     1  UNL1        0.0233
     10 C          61.6043   91.2904    4.2390 C.3     1  UNL1        0.1147
     11 H          61.7203   90.1126    6.6085 H       1  UNL1        0.1564
     12 C          61.4082   93.0586    0.6914 C.ar    1  UNL1        0.1554
     13 N          62.7957   93.5950    0.4981 N.ar    1  UNL1       -0.1974
     14 C          63.2064   94.1501   -0.8334 C.ar    1  UNL1        0.2162
     15 N          64.5939   94.6864   -1.0268 N.pl3   1  UNL1       -0.3274
     16 N          62.2297   94.1689   -1.9717 N.ar    1  UNL1       -0.1949
     17 C          60.8423   93.6326   -1.7784 C.ar    1  UNL1        0.1685
     18 C          60.4315   93.0775   -0.4469 C.ar    1  UNL1        0.1486
     19 N          59.0064   92.6218   -0.5542 N.ar    1  UNL1       -0.2194
     20 C          58.5365   92.8953   -1.9522 C.ar    1  UNL1        0.1798
     21 N          59.6711   93.5200   -2.7088 N.ar    1  UNL1       -0.2923
     22 C          59.6399   93.9556   -4.1438 C.3     1  UNL1        0.1335
     23 H          65.2349   94.6741   -0.2797 H       1  UNL1        0.1452
     24 H          64.8634   95.0508   -1.9008 H       1  UNL1        0.1452
     25 C          59.5513   88.5146   10.8970 C.ar    1  UNL1        0.1385
     26 C          60.1647   89.8808   10.8109 C.ar    1  UNL1        0.0382
     27 C          60.5753   90.4359    9.4792 C.ar    1  UNL1        0.0175
     28 C          60.3725   89.6250    8.2338 C.ar    1  UNL1        0.0478
     29 C          59.7591   88.2588    8.3199 C.ar    1  UNL1       -0.0053
     30 C          59.5563   87.4479    7.0745 C.3     1  UNL1        0.0324
     31 C          59.3485   87.7037    9.6515 C.ar    1  UNL1        0.0339
     32 C          58.2805   88.7746   13.1481 C.3     1  UNL1        0.2525
     33 O          59.1406   87.9594   12.2286 O.3     1  UNL1       -0.4714
@<TRIPOS>BOND
     1    32    33    1
     2    33    25    1
     3    25    26   ar
     4    26    27   ar
     5    27    28   ar
     6    28     1    1
     7     1     2   am
     8     2     3    2
     9     2     4   am
    10     4     5    1
    11     5     6    1
    12     6     7    1
    13     7    12    1
    14    12    13   ar
    15    13    14   ar
    16    14    15    1
    17    14    16   ar
    18    16    17   ar
    19    17    18   ar
    20    18    19   ar
    21    19    20   ar
    22    20    21   ar
    23    21    22    1
    24     7     8    1
    25     8     9    1
    26     8    10    1
    27    28    29   ar
    28    29    30    1
    29    29    31   ar
    30    31    25   ar
    31    10     4    1
    32    18    12   ar
    33    21    17   ar
    34     1    11    1
    35    15    23    1
    36    15    24    1
@<TRIPOS>MOLECULE
*****
 33 36 0 0 0
SMALL
GASTEIGER

@<TRIPOS>ATOM
      1 N          61.7831   85.5061   10.6318 N.am    1  UNL1       -0.2684
      2 C          61.8873   87.0023   10.6496 C.2     1  UNL1        0.3078
      3 O          62.6449   87.6884   11.7476 O.2     1  UNL1       -0.2522
      4 N          61.2340   87.8125    9.5694 N.am    1  UNL1       -0.2605
      5 C          61.3382   89.3088    9.5872 C.3     1  UNL1        0.1164
      6 C          60.6849   90.1190    8.5070 C.3     1  UNL1        0.1137
      7 N          59.9274   89.4329    7.4091 N.pl3   1  UNL1       -0.2901
      8 C          59.8232   87.9367    7.3913 C.3     1  UNL1        0.0941
      9 C          59.0656   87.2506    6.2934 C.3     1  UNL1        0.0233
     10 C          60.4765   87.1264    8.4715 C.3     1  UNL1        0.1147
     11 H          61.2859   85.0558    9.9112 H       1  UNL1        0.1564
     12 C          59.2741   90.2431    6.3289 C.ar    1  UNL1        0.1554
     13 N          57.7800   90.3692    6.2857 N.ar    1  UNL1       -0.1974
     14 C          57.1266   91.1793    5.2056 C.ar    1  UNL1        0.2162
     15 N          55.6325   91.3055    5.1623 N.pl3   1  UNL1       -0.3274
     16 N          57.9673   91.8634    4.1686 N.ar    1  UNL1       -0.1949
     17 C          59.4613   91.7373    4.2117 C.ar    1  UNL1        0.1685
     18 C          60.1147   90.9271    5.2919 C.ar    1  UNL1        0.1486
     19 N          61.5986   90.9831    5.0800 N.ar    1  UNL1       -0.2194
     20 C          61.8623   91.8279    3.8689 C.ar    1  UNL1        0.1798
     21 N          60.5414   92.2940    3.3322 N.ar    1  UNL1       -0.2923
     22 C          60.3366   93.1640    2.1276 C.3     1  UNL1        0.1335
     23 H          55.0807   90.8565    5.8429 H       1  UNL1        0.1452
     24 H          55.2037   91.8372    4.4534 H       1  UNL1        0.1452
     25 C          63.7429   83.0754   13.8723 C.ar    1  UNL1        0.1385
     26 C          62.7253   84.1182   14.2285 C.ar    1  UNL1        0.0382
     27 C          62.0720   84.9285   13.1484 C.ar    1  UNL1        0.0175
     28 C          62.4364   84.6959   11.7120 C.ar    1  UNL1        0.0478
     29 C          63.4540   83.6531   11.3558 C.ar    1  UNL1       -0.0053
     30 C          63.8184   83.4205    9.9195 C.3     1  UNL1        0.0324
     31 C          64.1073   82.8429   12.4360 C.ar    1  UNL1        0.0339
     32 C          64.4087   80.7679   14.8632 C.3     1  UNL1        0.2525
     33 O          64.3963   82.2651   14.9525 O.3     1  UNL1       -0.4714
@<TRIPOS>BOND
     1    32    33    1
     2    33    25    1
     3    25    26   ar
     4    26    27   ar
     5    27    28   ar
     6    28     1    1
     7     1     2   am
     8     2     3    2
     9     2     4   am
    10     4     5    1
    11     5     6    1
    12     6     7    1
    13     7    12    1
    14    12    13   ar
    15    13    14   ar
    16    14    15    1
    17    14    16   ar
    18    16    17   ar
    19    17    18   ar
    20    18    19   ar
    21    19    20   ar
    22    20    21   ar
    23    21    22    1
    24     7     8    1
    25     8     9    1
    26     8    10    1
    27    28    29   ar
    28    29    30    1
    29    29    31   ar
    30    31    25   ar
    31    10     4    1
    32    18    12   ar
    33    21    17   ar
    34     1    11    1
    35    15    23    1
    36    15    24    1
@<TRIPOS>MOLECULE
*****
 33 36 0 0 0
SMALL
GASTEIGER

@<TRIPOS>ATOM
      1 N          63.1488   84.2042   12.3927 N.am    1  UNL1       -0.2684
      2 C          63.9889   84.6469   13.5537 C.2     1  UNL1        0.3078
      3 O          64.6298   83.6269   14.4478 O.2     1  UNL1       -0.2522
      4 N          64.1884   86.1094   13.8209 N.am    1  UNL1       -0.2605
      5 C          65.0286   86.5520   14.9819 C.3     1  UNL1        0.1164
      6 C          65.2280   88.0145   15.2490 C.3     1  UNL1        0.1137
      7 N          64.5871   89.0343   14.3551 N.pl3   1  UNL1       -0.2901
      8 C          63.7469   88.5917   13.1940 C.3     1  UNL1        0.0941
      9 C          63.1061   89.6115   12.3000 C.3     1  UNL1        0.0233
     10 C          63.5475   87.1292   12.9269 C.3     1  UNL1        0.1147
     11 H          62.7281   84.8736   11.8060 H       1  UNL1        0.1564
     12 C          64.7865   90.4968   14.6221 C.ar    1  UNL1        0.1554
     13 N          64.4706   91.0621   15.9752 N.ar    1  UNL1       -0.1974
     14 C          64.6700   92.5245   16.2423 C.ar    1  UNL1        0.2162
     15 N          64.3541   93.0897   17.5954 N.pl3   1  UNL1       -0.3274
     16 N          65.1852   93.4218   15.1564 N.ar    1  UNL1       -0.1949
     17 C          65.5010   92.8567   13.8033 C.ar    1  UNL1        0.1685
     18 C          65.3017   91.3942   13.5362 C.ar    1  UNL1        0.1486
     19 N          65.6964   91.1246   12.1144 N.ar    1  UNL1       -0.2194
     20 C          66.1397   92.4205   11.5028 C.ar    1  UNL1        0.1798
     21 N          66.0190   93.4910   12.5466 N.ar    1  UNL1       -0.2923
     22 C          66.3568   94.9412   12.3654 C.3     1  UNL1        0.1335
     23 H          64.0159   92.5008   18.3082 H       1  UNL1        0.1452
     24 H          64.4849   94.0496   17.7707 H       1  UNL1        0.1452
     25 C          62.5505   79.8167   11.5914 C.ar    1  UNL1        0.1385
     26 C          62.0926   80.4111   12.8902 C.ar    1  UNL1        0.0382
     27 C          62.2920   81.8736   13.1573 C.ar    1  UNL1        0.0175
     28 C          62.9493   82.7417   12.1256 C.ar    1  UNL1        0.0478
     29 C          63.4072   82.1473   10.8268 C.ar    1  UNL1       -0.0053
     30 C          64.0645   83.0153    9.7951 C.3     1  UNL1        0.0324
     31 C          63.2078   80.6848   10.5597 C.ar    1  UNL1        0.0339
     32 C          63.0654   77.6965   10.1808 C.3     1  UNL1        0.2525
     33 O          62.3511   78.3542   11.3242 O.3     1  UNL1       -0.4714
@<TRIPOS>BOND
     1    32    33    1
     2    33    25    1
     3    25    26   ar
     4    26    27   ar
     5    27    28   ar
     6    28     1    1
     7     1     2   am
     8     2     3    2
     9     2     4   am
    10     4     5    1
    11     5     6    1
    12     6     7    1
    13     7    12    1
    14    12    13   ar
    15    13    14   ar
    16    14    15    1
    17    14    16   ar
    18    16    17   ar
    19    17    18   ar
    20    18    19   ar
    21    19    20   ar
    22    20    21   ar
    23    21    22    1
    24     7     8    1
    25     8     9    1
    26     8    10    1
    27    28    29   ar
    28    29    30    1
    29    29    31   ar
    30    31    25   ar
    31    10     4    1
    32    18    12   ar
    33    21    17   ar
    34     1    11    1
    35    15    23    1
    36    15    24    1
@<TRIPOS>MOLECULE
*****
 33 36 0 0 0
SMALL
GASTEIGER

@<TRIPOS>ATOM
      1 N          63.5073   83.6048   12.6623 N.am    1  UNL1       -0.2684
      2 C          62.9814   84.8075   11.9365 C.2     1  UNL1        0.3078
      3 O          62.1056   84.6326   10.7312 O.2     1  UNL1       -0.2522
      4 N          63.3312   86.1851   12.4159 N.am    1  UNL1       -0.2605
      5 C          62.8053   87.3878   11.6900 C.3     1  UNL1        0.1164
      6 C          63.1551   88.7655   12.1694 C.3     1  UNL1        0.1137
      7 N          64.0308   88.9403   13.3746 N.pl3   1  UNL1       -0.2901
      8 C          64.5568   87.7375   14.1004 C.3     1  UNL1        0.0941
      9 C          65.4325   87.9124   15.3056 C.3     1  UNL1        0.0233
     10 C          64.2069   86.3599   13.6210 C.3     1  UNL1        0.1147
     11 H          64.0820   83.7195   13.4533 H       1  UNL1        0.1564
     12 C          64.3807   90.3179   13.8540 C.ar    1  UNL1        0.1554
     13 N          64.2227   90.6702   15.3035 N.ar    1  UNL1       -0.1974
     14 C          64.5725   92.0477   15.7830 C.ar    1  UNL1        0.2162
     15 N          64.4145   92.4001   17.2325 N.pl3   1  UNL1       -0.3274
     16 N          65.0804   93.0730   14.8130 N.ar    1  UNL1       -0.1949
     17 C          65.2384   92.7208   13.3636 C.ar    1  UNL1        0.1685
     18 C          64.8886   91.3432   12.8841 C.ar    1  UNL1        0.1486
     19 N          65.1461   91.2870   11.4074 N.ar    1  UNL1       -0.2194
     20 C          65.6551   92.6299   10.9743 C.ar    1  UNL1        0.1798
     21 N          65.7122   93.5160   12.1833 N.ar    1  UNL1       -0.2923
     22 C          66.1637   94.9462   12.2076 C.3     1  UNL1        0.1335
     23 H          64.0812   91.7272   17.8691 H       1  UNL1        0.1452
     24 H          64.6441   93.3042   17.5471 H       1  UNL1        0.1452
     25 C          62.4578   79.4719   11.2242 C.ar    1  UNL1        0.1385
     26 C          63.1545   80.4313   10.3054 C.ar    1  UNL1        0.0382
     27 C          63.5043   81.8089   10.7848 C.ar    1  UNL1        0.0175
     28 C          63.1575   82.2271   12.1829 C.ar    1  UNL1        0.0478
     29 C          62.4608   81.2677   13.1017 C.ar    1  UNL1       -0.0053
     30 C          62.1140   81.6859   14.4998 C.3     1  UNL1        0.0324
     31 C          62.1110   79.8901   12.6223 C.ar    1  UNL1        0.0339
     32 C          63.1903   77.1623   10.2865 C.3     1  UNL1        0.2525
     33 O          62.1080   78.0942   10.7449 O.3     1  UNL1       -0.4714
@<TRIPOS>BOND
     1    32    33    1
     2    33    25    1
     3    25    26   ar
     4    26    27   ar
     5    27    28   ar
     6    28     1    1
     7     1     2   am
     8     2     3    2
     9     2     4   am
    10     4     5    1
    11     5     6    1
    12     6     7    1
    13     7    12    1
    14    12    13   ar
    15    13    14   ar
    16    14    15    1
    17    14    16   ar
    18    16    17   ar
    19    17    18   ar
    20    18    19   ar
    21    19    20   ar
    22    20    21   ar
    23    21    22    1
    24     7     8    1
    25     8     9    1
    26     8    10    1
    27    28    29   ar
    28    29    30    1
    29    29    31   ar
    30    31    25   ar
    31    10     4    1
    32    18    12   ar
    33    21    17   ar
    34     1    11    1
    35    15    23    1
    36    15    24    1
@<TRIPOS>MOLECULE
*****
 33 36 0 0 0
SMALL
GASTEIGER

@<TRIPOS>ATOM
      1 N          60.7878   90.2570    6.7994 N.am    1  UNL1       -0.2684
      2 C          59.7553   90.9413    5.9535 C.2     1  UNL1        0.3078
      3 O          58.3359   91.0327    6.4301 O.2     1  UNL1       -0.2522
      4 N          60.1421   91.5341    4.6310 N.am    1  UNL1       -0.2605
      5 C          59.1096   92.2184    3.7851 C.3     1  UNL1        0.1164
      6 C          59.4963   92.8112    2.4626 C.3     1  UNL1        0.1137
      7 N          60.9157   92.7197    1.9861 N.pl3   1  UNL1       -0.2901
      8 C          61.9482   92.0355    2.8320 C.3     1  UNL1        0.0941
      9 C          63.3675   91.9440    2.3555 C.3     1  UNL1        0.0233
     10 C          61.5614   91.4426    4.1545 C.3     1  UNL1        0.1147
     11 H          61.7194   90.1970    6.4867 H       1  UNL1        0.1564
     12 C          61.3025   93.3125    0.6636 C.ar    1  UNL1        0.1554
     13 N          60.5489   92.9344   -0.5771 N.ar    1  UNL1       -0.1974
     14 C          60.9357   93.5271   -1.8995 C.ar    1  UNL1        0.2162
     15 N          60.1821   93.1489   -3.1401 N.pl3   1  UNL1       -0.3274
     16 N          62.0761   94.4980   -1.9814 N.ar    1  UNL1       -0.1949
     17 C          62.8298   94.8762   -0.7409 C.ar    1  UNL1        0.1685
     18 C          62.4430   94.2834    0.5817 C.ar    1  UNL1        0.1486
     19 N          63.3634   94.8410    1.6266 N.ar    1  UNL1       -0.2194
     20 C          64.3191   95.7784    0.9498 C.ar    1  UNL1        0.1798
     21 N          63.9893   95.8002   -0.5133 N.ar    1  UNL1       -0.2923
     22 C          64.6951   96.6046   -1.5644 C.3     1  UNL1        0.1335
     23 H          59.4336   92.5117   -3.0864 H       1  UNL1        0.1452
     24 H          60.4360   93.5380   -4.0081 H       1  UNL1        0.1452
     25 C          59.6275   88.4786   10.7669 C.ar    1  UNL1        0.1385
     26 C          60.3064   89.8151   10.7139 C.ar    1  UNL1        0.0382
     27 C          60.6932   90.4079    9.3914 C.ar    1  UNL1        0.0175
     28 C          60.4010   89.6642    8.1219 C.ar    1  UNL1        0.0478
     29 C          59.7221   88.3277    8.1749 C.ar    1  UNL1       -0.0053
     30 C          59.4300   87.5840    6.9055 C.3     1  UNL1        0.0324
     31 C          59.3353   87.7349    9.4974 C.ar    1  UNL1        0.0339
     32 C          58.3879   88.6699   13.0422 C.3     1  UNL1        0.2525
     33 O          59.2407   87.8856   12.0894 O.3     1  UNL1       -0.4714
@<TRIPOS>BOND
     1    32    33    1
     2    33    25    1
     3    25    26   ar
     4    26    27   ar
     5    27    28   ar
     6    28     1    1
     7     1     2   am
     8     2     3    2
     9     2     4   am
    10     4     5    1
    11     5     6    1
    12     6     7    1
    13     7    12    1
    14    12    13   ar
    15    13    14   ar
    16    14    15    1
    17    14    16   ar
    18    16    17   ar
    19    17    18   ar
    20    18    19   ar
    21    19    20   ar
    22    20    21   ar
    23    21    22    1
    24     7     8    1
    25     8     9    1
    26     8    10    1
    27    28    29   ar
    28    29    30    1
    29    29    31   ar
    30    31    25   ar
    31    10     4    1
    32    18    12   ar
    33    21    17   ar
    34     1    11    1
    35    15    23    1
    36    15    24    1
@<TRIPOS>MOLECULE
*****
 33 36 0 0 0
SMALL
GASTEIGER

@<TRIPOS>ATOM
      1 N          65.0172   90.5210   13.5669 N.am    1  UNL1       -0.2684
      2 C          64.3653   91.0493   12.3236 C.2     1  UNL1        0.3078
      3 O          64.5543   92.4844   11.9296 O.2     1  UNL1       -0.2522
      4 N          63.5245   90.1429   11.4743 N.am    1  UNL1       -0.2605
      5 C          62.8727   90.6713   10.2310 C.3     1  UNL1        0.1164
      6 C          62.0318   89.7649    9.3817 C.3     1  UNL1        0.1137
      7 N          61.8429   88.3300    9.7757 N.pl3   1  UNL1       -0.2901
      8 C          62.4948   87.8015   11.0190 C.3     1  UNL1        0.0941
      9 C          62.3058   86.3666   11.4130 C.3     1  UNL1        0.0233
     10 C          63.3356   88.7080   11.8684 C.3     1  UNL1        0.1147
     11 H          64.8932   89.5792   13.8255 H       1  UNL1        0.1564
     12 C          61.0021   87.4234    8.9265 C.ar    1  UNL1        0.1554
     13 N          59.5132   87.6015    8.8857 N.ar    1  UNL1       -0.1974
     14 C          58.6724   86.6951    8.0365 C.ar    1  UNL1        0.2162
     15 N          57.1835   86.8731    7.9958 N.pl3   1  UNL1       -0.3274
     16 N          59.3203   85.6104    7.2280 N.ar    1  UNL1       -0.1949
     17 C          60.8091   85.4323    7.2687 C.ar    1  UNL1        0.1685
     18 C          61.6500   86.3388    8.1179 C.ar    1  UNL1        0.1486
     19 N          63.0832   85.9256    7.9587 N.ar    1  UNL1       -0.2194
     20 C          63.1280   84.7637    7.0111 C.ar    1  UNL1        0.1798
     21 N          61.7226   84.4588    6.5846 N.ar    1  UNL1       -0.2923
     22 C          61.3041   83.3714    5.6400 C.3     1  UNL1        0.1335
     23 H          56.7582   87.5850    8.5265 H       1  UNL1        0.1452
     24 H          56.6316   86.2782    7.4384 H       1  UNL1        0.1452
     25 C          67.5397   93.2404   16.1148 C.ar    1  UNL1        0.1385
     26 C          68.0530   92.7670   14.7873 C.ar    1  UNL1        0.0382
     27 C          67.2122   91.8605   13.9380 C.ar    1  UNL1        0.0175
     28 C          65.8580   91.4274   14.4162 C.ar    1  UNL1        0.0478
     29 C          65.3447   91.9009   15.7437 C.ar    1  UNL1       -0.0053
     30 C          63.9905   91.4678   16.2219 C.3     1  UNL1        0.0324
     31 C          66.1855   92.8073   16.5930 C.ar    1  UNL1        0.0339
     32 C          69.5661   94.8464   16.3685 C.3     1  UNL1        0.2525
     33 O          68.3805   94.1469   16.9642 O.3     1  UNL1       -0.4714
@<TRIPOS>BOND
     1    32    33    1
     2    33    25    1
     3    25    26   ar
     4    26    27   ar
     5    27    28   ar
     6    28     1    1
     7     1     2   am
     8     2     3    2
     9     2     4   am
    10     4     5    1
    11     5     6    1
    12     6     7    1
    13     7    12    1
    14    12    13   ar
    15    13    14   ar
    16    14    15    1
    17    14    16   ar
    18    16    17   ar
    19    17    18   ar
    20    18    19   ar
    21    19    20   ar
    22    20    21   ar
    23    21    22    1
    24     7     8    1
    25     8     9    1
    26     8    10    1
    27    28    29   ar
    28    29    30    1
    29    29    31   ar
    30    31    25   ar
    31    10     4    1
    32    18    12   ar
    33    21    17   ar
    34     1    11    1
    35    15    23    1
    36    15    24    1
@<TRIPOS>MOLECULE
*****
 33 36 0 0 0
SMALL
GASTEIGER

@<TRIPOS>ATOM
      1 N          64.9832   90.1094   13.1868 N.am    1  UNL1       -0.2684
      2 C          63.9143   89.5229   12.3131 C.2     1  UNL1        0.3078
      3 O          63.1831   90.3943   11.3353 O.2     1  UNL1       -0.2522
      4 N          63.5766   88.0651   12.4172 N.am    1  UNL1       -0.2605
      5 C          62.5076   87.4787   11.5435 C.3     1  UNL1        0.1164
      6 C          62.1698   86.0209   11.6475 C.3     1  UNL1        0.1137
      7 N          62.9010   85.1497   12.6253 N.pl3   1  UNL1       -0.2901
      8 C          63.9700   85.7361   13.4991 C.3     1  UNL1        0.0941
      9 C          64.7012   84.8647   14.4768 C.3     1  UNL1        0.0233
     10 C          64.3078   87.1939   13.3950 C.3     1  UNL1        0.1147
     11 H          65.4632   89.5375   13.8286 H       1  UNL1        0.1564
     12 C          62.5633   83.6919   12.7295 C.ar    1  UNL1        0.1554
     13 N          61.8140   83.1790   13.9235 N.ar    1  UNL1       -0.1974
     14 C          61.4763   81.7213   14.0277 C.ar    1  UNL1        0.2162
     15 N          60.7270   81.2084   15.2217 N.pl3   1  UNL1       -0.3274
     16 N          61.8878   80.7763   12.9379 N.ar    1  UNL1       -0.1949
     17 C          62.6371   81.2891   11.7439 C.ar    1  UNL1        0.1685
     18 C          62.9748   82.7469   11.6397 C.ar    1  UNL1        0.1486
     19 N          63.7166   82.9601   10.3535 N.ar    1  UNL1       -0.2194
     20 C          63.8372   81.6341    9.6627 C.ar    1  UNL1        0.1798
     21 N          63.1701   80.6014   10.5220 N.ar    1  UNL1       -0.2923
     22 C          63.0560   79.1378   10.2136 C.3     1  UNL1        0.1335
     23 H          60.4569   81.8286   15.9370 H       1  UNL1        0.1452
     24 H          60.5053   80.2517   15.2900 H       1  UNL1        0.1452
     25 C          65.9966   94.4827   12.8746 C.ar    1  UNL1        0.1385
     26 C          65.4356   93.7562   11.6882 C.ar    1  UNL1        0.0382
     27 C          65.0979   92.2985   11.7923 C.ar    1  UNL1        0.0175
     28 C          65.3210   91.5671   13.0827 C.ar    1  UNL1        0.0478
     29 C          65.8820   92.2936   14.2692 C.ar    1  UNL1       -0.0053
     30 C          66.1052   91.5622   15.5596 C.3     1  UNL1        0.0324
     31 C          66.2198   93.7513   14.1651 C.ar    1  UNL1        0.0339
     32 C          66.1409   96.6643   11.4712 C.3     1  UNL1        0.2525
     33 O          66.3344   95.9405   12.7707 O.3     1  UNL1       -0.4714
@<TRIPOS>BOND
     1    32    33    1
     2    33    25    1
     3    25    26   ar
     4    26    27   ar
     5    27    28   ar
     6    28     1    1
     7     1     2   am
     8     2     3    2
     9     2     4   am
    10     4     5    1
    11     5     6    1
    12     6     7    1
    13     7    12    1
    14    12    13   ar
    15    13    14   ar
    16    14    15    1
    17    14    16   ar
    18    16    17   ar
    19    17    18   ar
    20    18    19   ar
    21    19    20   ar
    22    20    21   ar
    23    21    22    1
    24     7     8    1
    25     8     9    1
    26     8    10    1
    27    28    29   ar
    28    29    30    1
    29    29    31   ar
    30    31    25   ar
    31    10     4    1
    32    18    12   ar
    33    21    17   ar
    34     1    11    1
    35    15    23    1
    36    15    24    1
