@<TRIPOS>MOLECULE
*****
 23 26 0 0 0
SMALL
GASTEIGER

@<TRIPOS>ATOM
      1 O          61.1802   89.6355   12.5952 O.2     1  UNL1       -0.2448
      2 C          62.4572   89.4496   11.8305 C.2     1  UNL1        0.3428
      3 C          63.3900   90.6079   11.6355 C.2     1  UNL1        0.0963
      4 C          63.5079   91.4462   10.3972 C.2     1  UNL1        0.1049
      5 N          64.5595   92.4877   10.6410 N.2     1  UNL1       -0.2475
      6 C          65.0915   92.2931   12.0299 C.2     1  UNL1        0.0665
      7 C          66.1407   93.0237   12.8143 C.3     1  UNL1        0.1022
      8 C          66.4672   92.5925   14.2135 C.2     1  UNL1        0.1241
      9 F          67.5164   93.3231   14.9979 F       1  UNL1       -0.2084
     10 C          65.7444   91.4307   14.8281 C.2     1  UNL1        0.0323
     11 C          64.6952   90.7001   14.0436 C.2     1  UNL1        0.0379
     12 BR         63.9724   89.5383   14.6583 Br      1  UNL1       -0.0489
     13 C          64.3688   91.1313   12.6446 C.2     1  UNL1        0.0280
     14 O          62.8014   88.1053   11.2609 O.3     1  UNL1       -0.4454
     15 C          61.7355   87.0613   11.1055 C.3     1  UNL1        0.2087
     16 C          61.3610   86.5695    9.7388 C.3     1  UNL1        0.0445
     17 C          62.3372   85.7574    8.9403 C.3     1  UNL1        0.0210
     18 C          61.9625   85.2657    7.5737 C.3     1  UNL1        0.0722
     19 N          60.6117   85.5859    7.0055 N.3     1  UNL1       -0.2727
     20 C          59.6355   86.3980    7.8041 C.3     1  UNL1        0.0722
     21 C          60.0102   86.8897    9.1707 C.3     1  UNL1        0.0210
     22 C          60.7718   85.8773    7.7587 C.3     1  UNL1        0.0722
     23 C          61.1105   86.3220    8.9945 C.3     1  UNL1        0.0210
@<TRIPOS>BOND
     1     1     2    2
     2     2    14    1
     3    14    15    1
     4    15    16    1
     5    16    17    1
     6    17    18    1
     7    18    19    1
     8    19    20    1
     9    20    21    1
    10    19    22    1
    11    22    23    1
    12     2     3    1
    13     3     4    2
    14     4     5    1
    15     5     6    2
    16     6     7    1
    17     7     8    1
    18     8     9    1
    19     8    10    2
    20    10    11    1
    21    11    12    1
    22    11    13    2
    23    21    16    1
    24    13     3    1
    25    23    16    1
    26    13     6    1
@<TRIPOS>MOLECULE
*****
 23 26 0 0 0
SMALL
GASTEIGER

@<TRIPOS>ATOM
      1 O          60.9327   89.3846   12.3639 O.2     1  UNL1       -0.2448
      2 C          62.3667   89.1781   11.9754 C.2     1  UNL1        0.3428
      3 C          63.2400   90.3600   11.6748 C.2     1  UNL1        0.0963
      4 C          63.2989   91.1046   10.3740 C.2     1  UNL1        0.1049
      5 N          64.3031   92.2096   10.5176 N.2     1  UNL1       -0.2475
      6 C          64.8648   92.1480   11.9071 C.2     1  UNL1        0.0665
      7 C          65.8896   92.9850   12.6135 C.3     1  UNL1        0.1022
      8 C          66.2575   92.6790   14.0351 C.2     1  UNL1        0.1241
      9 F          67.2823   93.5160   14.7415 F       1  UNL1       -0.2084
     10 C          65.6005   91.5358   14.7503 C.2     1  UNL1        0.0323
     11 C          64.5756   90.6987   14.0439 C.2     1  UNL1        0.0379
     12 BR         63.9186   89.5556   14.7591 Br      1  UNL1       -0.0489
     13 C          64.2078   91.0048   12.6223 C.2     1  UNL1        0.0280
     14 O          62.9274   87.7896   11.8874 O.3     1  UNL1       -0.4454
     15 C          62.1120   86.6887   11.2764 C.3     1  UNL1        0.2087
     16 C          62.6303   85.2811   11.2797 C.3     1  UNL1        0.0445
     17 C          62.5627   84.4599   12.5331 C.3     1  UNL1        0.0210
     18 C          63.0809   83.0523   12.5363 C.3     1  UNL1        0.0722
     19 N          63.6668   82.4659   11.2861 N.3     1  UNL1       -0.2727
     20 C          63.7344   83.2872   10.0327 C.3     1  UNL1        0.0722
     21 C          63.2162   84.6948   10.0295 C.3     1  UNL1        0.0210
     22 C          63.3956   83.2417   11.2358 C.3     1  UNL1        0.0722
     23 C          62.9269   84.5145   11.2328 C.3     1  UNL1        0.0210
@<TRIPOS>BOND
     1     1     2    2
     2     2    14    1
     3    14    15    1
     4    15    16    1
     5    16    17    1
     6    17    18    1
     7    18    19    1
     8    19    20    1
     9    20    21    1
    10    19    22    1
    11    22    23    1
    12     2     3    1
    13     3     4    2
    14     4     5    1
    15     5     6    2
    16     6     7    1
    17     7     8    1
    18     8     9    1
    19     8    10    2
    20    10    11    1
    21    11    12    1
    22    11    13    2
    23    21    16    1
    24    13     3    1
    25    23    16    1
    26    13     6    1
@<TRIPOS>MOLECULE
*****
 23 26 0 0 0
SMALL
GASTEIGER

@<TRIPOS>ATOM
      1 O          61.0013   89.4366   12.3990 O.2     1  UNL1       -0.2448
      2 C          62.4526   89.1045   12.2159 C.2     1  UNL1        0.3428
      3 C          63.5007   89.9001   12.9361 C.2     1  UNL1        0.0963
      4 C          63.9941   89.6503   14.3304 C.2     1  UNL1        0.1049
      5 N          65.0376   90.6810   14.6444 N.2     1  UNL1       -0.2475
      6 C          65.1892   91.5678   13.4442 C.2     1  UNL1        0.0665
      7 C          66.0695   92.7524   13.1762 C.3     1  UNL1        0.1022
      8 C          65.9998   93.4545   11.8524 C.2     1  UNL1        0.1241
      9 F          66.8801   94.6391   11.5845 F       1  UNL1       -0.2084
     10 C          65.0499   92.9719   10.7966 C.2     1  UNL1        0.0323
     11 C          64.1696   91.7872   11.0646 C.2     1  UNL1        0.0379
     12 BR         63.2197   91.3046   10.0088 Br      1  UNL1       -0.0489
     13 C          64.2393   91.0852   12.3883 C.2     1  UNL1        0.0280
     14 O          62.8559   87.9769   11.3126 O.3     1  UNL1       -0.4454
     15 C          61.9504   86.7935   11.1401 C.3     1  UNL1        0.2087
     16 C          61.2511   86.5686    9.8323 C.3     1  UNL1        0.0445
     17 C          59.8926   87.1593    9.5969 C.3     1  UNL1        0.0210
     18 C          59.1934   86.9343    8.2890 C.3     1  UNL1        0.0722
     19 N          59.8527   86.1185    7.2167 N.3     1  UNL1       -0.2727
     20 C          61.2112   85.5278    7.4522 C.3     1  UNL1        0.0722
     21 C          61.9104   85.7528    8.7600 C.3     1  UNL1        0.0210
     22 C          60.2749   86.2145    7.9170 C.3     1  UNL1        0.0722
     23 C          60.9072   86.4179    9.0995 C.3     1  UNL1        0.0210
@<TRIPOS>BOND
     1     1     2    2
     2     2    14    1
     3    14    15    1
     4    15    16    1
     5    16    17    1
     6    17    18    1
     7    18    19    1
     8    19    20    1
     9    20    21    1
    10    19    22    1
    11    22    23    1
    12     2     3    1
    13     3     4    2
    14     4     5    1
    15     5     6    2
    16     6     7    1
    17     7     8    1
    18     8     9    1
    19     8    10    2
    20    10    11    1
    21    11    12    1
    22    11    13    2
    23    21    16    1
    24    13     3    1
    25    23    16    1
    26    13     6    1
@<TRIPOS>MOLECULE
*****
 23 26 0 0 0
SMALL
GASTEIGER

@<TRIPOS>ATOM
      1 O          63.5801   91.5244   14.5563 O.2     1  UNL1       -0.2448
      2 C          63.9574   90.8131   13.2908 C.2     1  UNL1        0.3428
      3 C          63.7316   89.3355   13.1650 C.2     1  UNL1        0.0963
      4 C          64.1757   88.2893   14.1438 C.2     1  UNL1        0.1049
      5 N          63.7405   86.9520   13.6220 N.2     1  UNL1       -0.2475
      6 C          63.0274   87.1717   12.3208 C.2     1  UNL1        0.0665
      7 C          62.3824   86.2208   11.3566 C.3     1  UNL1        0.1022
      8 C          61.7318   86.7430   10.1100 C.2     1  UNL1        0.1241
      9 F          61.0868   85.7920    9.1458 F       1  UNL1       -0.2084
     10 C          61.7263   88.2161    9.8275 C.2     1  UNL1        0.0323
     11 C          62.3713   89.1671   10.7917 C.2     1  UNL1        0.0379
     12 BR         62.3658   90.6403   10.5093 Br      1  UNL1       -0.0489
     13 C          63.0219   88.6449   12.0383 C.2     1  UNL1        0.0280
     14 O          64.5606   91.5793   12.1510 O.3     1  UNL1       -0.4454
     15 C          65.8717   92.2852   12.3322 C.3     1  UNL1        0.2087
     16 C          66.5480   92.9246   11.1559 C.3     1  UNL1        0.0445
     17 C          66.1928   94.3263   10.7571 C.3     1  UNL1        0.0210
     18 C          66.8692   94.9656    9.5808 C.3     1  UNL1        0.0722
     19 N          67.9009   94.2032    8.8033 N.3     1  UNL1       -0.2727
     20 C          68.2561   92.8015    9.2021 C.3     1  UNL1        0.0722
     21 C          67.5796   92.1622   10.3784 C.3     1  UNL1        0.0210
     22 C          67.5572   93.8110    9.4404 C.3     1  UNL1        0.0722
     23 C          66.9456   93.2328   10.5040 C.3     1  UNL1        0.0210
@<TRIPOS>BOND
     1     1     2    2
     2     2    14    1
     3    14    15    1
     4    15    16    1
     5    16    17    1
     6    17    18    1
     7    18    19    1
     8    19    20    1
     9    20    21    1
    10    19    22    1
    11    22    23    1
    12     2     3    1
    13     3     4    2
    14     4     5    1
    15     5     6    2
    16     6     7    1
    17     7     8    1
    18     8     9    1
    19     8    10    2
    20    10    11    1
    21    11    12    1
    22    11    13    2
    23    21    16    1
    24    13     3    1
    25    23    16    1
    26    13     6    1
@<TRIPOS>MOLECULE
*****
 23 26 0 0 0
SMALL
GASTEIGER

@<TRIPOS>ATOM
      1 O          60.8681   89.2281   12.1282 O.2     1  UNL1       -0.2448
      2 C          62.3040   88.7972   12.0769 C.2     1  UNL1        0.3428
      3 C          63.3411   89.5492   12.8572 C.2     1  UNL1        0.0963
      4 C          63.8285   89.2072   14.2340 C.2     1  UNL1        0.1049
      5 N          64.8615   90.2220   14.6253 N.2     1  UNL1       -0.2475
      6 C          65.0125   91.1912   13.4905 C.2     1  UNL1        0.0665
      7 C          65.8842   92.3985   13.3109 C.3     1  UNL1        0.1022
      8 C          65.8163   93.1902   12.0386 C.2     1  UNL1        0.1241
      9 F          66.6881   94.3976   11.8591 F       1  UNL1       -0.2084
     10 C          64.8767   92.7744   10.9458 C.2     1  UNL1        0.0323
     11 C          64.0049   91.5670   11.1254 C.2     1  UNL1        0.0379
     12 BR         63.0652   91.1512   10.0326 Br      1  UNL1       -0.0489
     13 C          64.0728   90.7754   12.3977 C.2     1  UNL1        0.0280
     14 O          62.7027   87.6142   11.2454 O.3     1  UNL1       -0.4454
     15 C          62.0548   86.2814   11.4777 C.3     1  UNL1        0.2087
     16 C          62.8728   85.0264   11.4017 C.3     1  UNL1        0.0445
     17 C          63.2004   84.4242   10.0675 C.3     1  UNL1        0.0210
     18 C          64.0183   83.1692    9.9917 C.3     1  UNL1        0.0722
     19 N          64.5088   82.5163   11.2500 N.3     1  UNL1       -0.2727
     20 C          64.1812   83.1185   12.5841 C.3     1  UNL1        0.0722
     21 C          63.3632   84.3736   12.6600 C.3     1  UNL1        0.0210
     22 C          64.0638   83.2029   11.3418 C.3     1  UNL1        0.0722
     23 C          63.3241   84.3378   11.4105 C.3     1  UNL1        0.0210
@<TRIPOS>BOND
     1     1     2    2
     2     2    14    1
     3    14    15    1
     4    15    16    1
     5    16    17    1
     6    17    18    1
     7    18    19    1
     8    19    20    1
     9    20    21    1
    10    19    22    1
    11    22    23    1
    12     2     3    1
    13     3     4    2
    14     4     5    1
    15     5     6    2
    16     6     7    1
    17     7     8    1
    18     8     9    1
    19     8    10    2
    20    10    11    1
    21    11    12    1
    22    11    13    2
    23    21    16    1
    24    13     3    1
    25    23    16    1
    26    13     6    1
@<TRIPOS>MOLECULE
*****
 23 26 0 0 0
SMALL
GASTEIGER

@<TRIPOS>ATOM
      1 O          63.8897   86.9198   13.4449 O.2     1  UNL1       -0.2448
      2 C          63.0621   85.9287   12.6817 C.2     1  UNL1        0.3428
      3 C          62.7527   84.5894   13.2824 C.2     1  UNL1        0.0963
      4 C          62.3092   84.3370   14.6929 C.2     1  UNL1        0.1049
      5 N          62.1150   82.8591   14.8602 N.2     1  UNL1       -0.2475
      6 C          62.4385   82.1981   13.5531 C.2     1  UNL1        0.0665
      7 C          62.4251   80.7606   13.1248 C.3     1  UNL1        0.1022
      8 C          62.8058   80.3925   11.7214 C.2     1  UNL1        0.1241
      9 F          62.7924   78.9550   11.2931 F       1  UNL1       -0.2084
     10 C          63.1999   81.4620   10.7462 C.2     1  UNL1        0.0323
     11 C          63.2133   82.8995   11.1745 C.2     1  UNL1        0.0379
     12 BR         63.6075   83.9690   10.1994 Br      1  UNL1       -0.0489
     13 C          62.8326   83.2675   12.5779 C.2     1  UNL1        0.0280
     14 O          62.5437   86.2767   11.3178 O.3     1  UNL1       -0.4454
     15 C          61.4932   87.3361   11.1625 C.3     1  UNL1        0.2087
     16 C          60.7766   87.4956    9.8545 C.3     1  UNL1        0.0445
     17 C          60.3703   86.2839    9.0691 C.3     1  UNL1        0.0210
     18 C          59.6537   86.4435    7.7611 C.3     1  UNL1        0.0722
     19 N          59.3433   87.8148    7.2384 N.3     1  UNL1       -0.2727
     20 C          59.7496   89.0265    8.0237 C.3     1  UNL1        0.0722
     21 C          60.4662   88.8669    9.3317 C.3     1  UNL1        0.0210
     22 C          59.7378   87.7775    7.9601 C.3     1  UNL1        0.0722
     23 C          60.3858   87.6333    9.1429 C.3     1  UNL1        0.0210
@<TRIPOS>BOND
     1     1     2    2
     2     2    14    1
     3    14    15    1
     4    15    16    1
     5    16    17    1
     6    17    18    1
     7    18    19    1
     8    19    20    1
     9    20    21    1
    10    19    22    1
    11    22    23    1
    12     2     3    1
    13     3     4    2
    14     4     5    1
    15     5     6    2
    16     6     7    1
    17     7     8    1
    18     8     9    1
    19     8    10    2
    20    10    11    1
    21    11    12    1
    22    11    13    2
    23    21    16    1
    24    13     3    1
    25    23    16    1
    26    13     6    1
@<TRIPOS>MOLECULE
*****
 23 26 0 0 0
SMALL
GASTEIGER

@<TRIPOS>ATOM
      1 O          63.7710   86.1466   13.7487 O.2     1  UNL1       -0.2448
      2 C          63.1784   85.8764   12.3975 C.2     1  UNL1        0.3428
      3 C          63.2767   84.5058   11.7959 C.2     1  UNL1        0.0963
      4 C          63.7462   84.1836   10.4082 C.2     1  UNL1        0.1049
      5 N          63.6824   82.6955   10.2312 N.2     1  UNL1       -0.2475
      6 C          63.1734   82.0979   11.5094 C.2     1  UNL1        0.0665
      7 C          62.9058   80.6796   11.9177 C.3     1  UNL1        0.1022
      8 C          62.3875   80.3801   13.2931 C.2     1  UNL1        0.1241
      9 F          62.1200   78.9618   13.7014 F       1  UNL1       -0.2084
     10 C          62.1368   81.4989   14.2602 C.2     1  UNL1        0.0323
     11 C          62.4044   82.9173   13.8519 C.2     1  UNL1        0.0379
     12 BR         62.1536   84.0362   14.8189 Br      1  UNL1       -0.0489
     13 C          62.9226   83.2168   12.4765 C.2     1  UNL1        0.0280
     14 O          62.4875   86.9767   11.6478 O.3     1  UNL1       -0.4454
     15 C          61.0275   86.8615   11.3235 C.3     1  UNL1        0.2087
     16 C          60.5242   87.2766    9.9729 C.3     1  UNL1        0.0445
     17 C          60.2523   86.2405    8.9228 C.3     1  UNL1        0.0210
     18 C          59.7490   86.6557    7.5722 C.3     1  UNL1        0.0722
     19 N          59.5177   88.1069    7.2715 N.3     1  UNL1       -0.2727
     20 C          59.7896   89.1430    8.3215 C.3     1  UNL1        0.0722
     21 C          60.2929   88.7278    9.6722 C.3     1  UNL1        0.0210
     22 C          59.7942   87.9277    8.0260 C.3     1  UNL1        0.0722
     23 C          60.2492   87.5524    9.2474 C.3     1  UNL1        0.0210
@<TRIPOS>BOND
     1     1     2    2
     2     2    14    1
     3    14    15    1
     4    15    16    1
     5    16    17    1
     6    17    18    1
     7    18    19    1
     8    19    20    1
     9    20    21    1
    10    19    22    1
    11    22    23    1
    12     2     3    1
    13     3     4    2
    14     4     5    1
    15     5     6    2
    16     6     7    1
    17     7     8    1
    18     8     9    1
    19     8    10    2
    20    10    11    1
    21    11    12    1
    22    11    13    2
    23    21    16    1
    24    13     3    1
    25    23    16    1
    26    13     6    1
@<TRIPOS>MOLECULE
*****
 23 26 0 0 0
SMALL
GASTEIGER

@<TRIPOS>ATOM
      1 O          61.9775   89.7498   12.9196 O.2     1  UNL1       -0.2448
      2 C          62.6106   89.0008   11.7847 C.2     1  UNL1        0.3428
      3 C          62.5786   87.5012   11.7653 C.2     1  UNL1        0.0963
      4 C          61.9088   86.6469   10.7302 C.2     1  UNL1        0.1049
      5 N          62.1271   85.2105   11.1028 N.2     1  UNL1       -0.2475
      6 C          62.9319   85.1769   12.3682 C.2     1  UNL1        0.0665
      7 C          63.4467   84.0402   13.2005 C.3     1  UNL1        0.1022
      8 C          64.2405   84.3192   14.4423 C.2     1  UNL1        0.1241
      9 F          64.7553   83.1824   15.2746 F       1  UNL1       -0.2084
     10 C          64.5196   85.7350   14.8517 C.2     1  UNL1        0.0323
     11 C          64.0048   86.8718   14.0194 C.2     1  UNL1        0.0379
     12 BR         64.2839   88.2876   14.4288 Br      1  UNL1       -0.0489
     13 C          63.2110   86.5927   12.7777 C.2     1  UNL1        0.0280
     14 O          63.2757   89.7512   10.6692 O.3     1  UNL1       -0.4454
     15 C          63.3483   91.2489   10.7115 C.3     1  UNL1        0.2087
     16 C          64.5234   91.9249   11.3534 C.3     1  UNL1        0.0445
     17 C          64.8015   91.7198   12.8131 C.3     1  UNL1        0.0210
     18 C          65.9767   92.3959   13.4549 C.3     1  UNL1        0.0722
     19 N          66.8737   93.2770   12.6371 N.3     1  UNL1       -0.2727
     20 C          66.5957   93.4822   11.1774 C.3     1  UNL1        0.0722
     21 C          65.4205   92.8061   10.5356 C.3     1  UNL1        0.0210
     22 C          66.2419   92.9277   12.2413 C.3     1  UNL1        0.0722
     23 C          65.1794   92.3165   11.6608 C.3     1  UNL1        0.0210
@<TRIPOS>BOND
     1     1     2    2
     2     2    14    1
     3    14    15    1
     4    15    16    1
     5    16    17    1
     6    17    18    1
     7    18    19    1
     8    19    20    1
     9    20    21    1
    10    19    22    1
    11    22    23    1
    12     2     3    1
    13     3     4    2
    14     4     5    1
    15     5     6    2
    16     6     7    1
    17     7     8    1
    18     8     9    1
    19     8    10    2
    20    10    11    1
    21    11    12    1
    22    11    13    2
    23    21    16    1
    24    13     3    1
    25    23    16    1
    26    13     6    1
@<TRIPOS>MOLECULE
*****
 23 26 0 0 0
SMALL
GASTEIGER

@<TRIPOS>ATOM
      1 O          60.7021   87.1275   11.4578 O.2     1  UNL1       -0.2448
      2 C          62.1612   86.8012   11.5778 C.2     1  UNL1        0.3428
      3 C          62.6764   85.4787   11.0925 C.2     1  UNL1        0.0963
      4 C          62.9624   85.1136    9.6660 C.2     1  UNL1        0.1049
      5 N          63.4589   83.6984    9.6404 N.2     1  UNL1       -0.2475
      6 C          63.4797   83.1888   11.0511 C.2     1  UNL1        0.0665
      7 C          63.8765   81.8651   11.6343 C.3     1  UNL1        0.1022
      8 C          63.7897   81.6416   13.1151 C.2     1  UNL1        0.1241
      9 F          64.1865   80.3179   13.6983 F       1  UNL1       -0.2084
     10 C          63.3061   82.7420   14.0125 C.2     1  UNL1        0.0323
     11 C          62.9093   84.0658   13.4292 C.2     1  UNL1        0.0379
     12 BR         62.4258   85.1661   14.3267 Br      1  UNL1       -0.0489
     13 C          62.9961   84.2892   11.9485 C.2     1  UNL1        0.0280
     14 O          63.1052   87.7975   12.1831 O.3     1  UNL1       -0.4454
     15 C          62.7145   89.2431   12.2718 C.3     1  UNL1        0.2087
     16 C          63.7010   90.2574   12.7697 C.3     1  UNL1        0.0445
     17 C          64.1264   91.3889   11.8817 C.3     1  UNL1        0.0210
     18 C          65.1129   92.4031   12.3797 C.3     1  UNL1        0.0722
     19 N          65.6741   92.2858   13.7659 N.3     1  UNL1       -0.2727
     20 C          65.2487   91.1543   14.6539 C.3     1  UNL1        0.0722
     21 C          64.2622   90.1400   14.1559 C.3     1  UNL1        0.0210
     22 C          65.1362   91.7060   13.5371 C.3     1  UNL1        0.0722
     23 C          64.2442   90.7888   13.0868 C.3     1  UNL1        0.0210
@<TRIPOS>BOND
     1     1     2    2
     2     2    14    1
     3    14    15    1
     4    15    16    1
     5    16    17    1
     6    17    18    1
     7    18    19    1
     8    19    20    1
     9    20    21    1
    10    19    22    1
    11    22    23    1
    12     2     3    1
    13     3     4    2
    14     4     5    1
    15     5     6    2
    16     6     7    1
    17     7     8    1
    18     8     9    1
    19     8    10    2
    20    10    11    1
    21    11    12    1
    22    11    13    2
    23    21    16    1
    24    13     3    1
    25    23    16    1
    26    13     6    1
