@<TRIPOS>MOLECULE
*****
 36 40 0 0 0
SMALL
GASTEIGER

@<TRIPOS>ATOM
      1 N          63.0032   90.6937   12.2838 N.3     1  UNL1       -0.2679
      2 C          64.2326   91.5293   12.0836 C.3     1  UNL1        0.0978
      3 C          64.6654   91.9068   10.6979 C.3     1  UNL1        0.0224
      4 C          65.8950   92.7425   10.4977 C.3     1  UNL1        0.0065
      5 C          66.6916   93.2007   11.6832 C.3     1  UNL1        0.0277
      6 C          66.2588   92.8232   13.0689 C.ar    1  UNL1       -0.0073
      7 C          67.0554   93.2813   14.2544 C.ar    1  UNL1       -0.0015
      8 C          66.6226   92.9038   15.6401 C.ar    1  UNL1        0.0203
      9 C          65.3931   92.0682   15.8403 C.ar    1  UNL1        0.0985
     10 N          64.5965   91.6100   14.6548 N.ar    1  UNL1       -0.2471
     11 C          65.0293   91.9875   13.2691 C.ar    1  UNL1        0.0695
     12 C          61.8207   90.8700   11.3778 C.3     1  UNL1        0.0886
     13 C          61.1432   85.2883    7.4237 C.ar    1  UNL1       -0.0003
     14 C          62.4422   85.2071    8.1694 C.ar    1  UNL1       -0.0003
     15 C          62.8374   86.3072    9.1093 C.ar    1  UNL1       -0.0045
     16 C          61.9338   87.4885    9.3036 C.ar    1  UNL1       -0.0234
     17 C          60.6348   87.5697    8.5579 C.ar    1  UNL1       -0.0103
     18 C          60.2395   86.4696    7.6180 C.ar    1  UNL1       -0.0032
     19 C          59.7311   88.7511    8.7522 C.3     1  UNL1        0.0953
     20 N          60.1264   89.8512    9.6922 N.3     1  UNL1       -0.2934
     21 C          61.4254   89.7699   10.4379 C.3     1  UNL1        0.0748
     22 C          62.3291   88.5886   10.2436 C.3     1  UNL1        0.0432
     23 H          59.3883   89.9191   10.3929 H       1  UNL1        0.1236
     24 C          62.9561   89.6817   13.3900 C.3     1  UNL1        0.0725
     25 C          63.8910   88.5088   13.3737 C.3     1  UNL1        0.0188
     26 C          64.3419   87.8911   14.6641 C.3     1  UNL1        0.0185
     27 C          64.4952   86.4026   14.7698 C.3     1  UNL1        0.0686
     28 N          63.3043   85.5464   15.0838 N.3     1  UNL1       -0.2985
     29 H          62.4891   86.1594   15.0703 H       1  UNL1        0.1232
     30 C          62.9758   84.3700   14.2132 C.3     1  UNL1        0.0568
     31 C          63.0958   84.4837   12.7223 C.3     1  UNL1        0.0328
     32 C          62.7674   83.3072   11.8516 C.3     1  UNL1        0.0699
     33 N          62.3190   82.0171   12.4718 N.3     1  UNL1       -0.2974
     34 C          62.1990   81.9035   13.9627 C.3     1  UNL1        0.0699
     35 C          62.5275   83.0799   14.8334 C.3     1  UNL1        0.0328
     36 H          62.9820   81.3013   12.1743 H       1  UNL1        0.1232
@<TRIPOS>BOND
     1    13    14   ar
     2    14    15   ar
     3    15    16   ar
     4    16    17   ar
     5    17    18   ar
     6    17    19    1
     7    19    20    1
     8    20    21    1
     9    21    12    1
    10    12     1    1
    11     1    24    1
    12    24    25    1
    13    25    26    1
    14    26    27    1
    15    27    28    1
    16    28    30    1
    17    30    31    1
    18    31    32    1
    19    32    33    1
    20    33    34    1
    21    34    35    1
    22     2     1    1
    23     2     3    1
    24     3     4    1
    25     4     5    1
    26     5     6    1
    27     6     7   ar
    28     7     8   ar
    29     8     9   ar
    30     9    10   ar
    31    10    11   ar
    32    21    22    1
    33    18    13   ar
    34    35    30    1
    35    11     2    1
    36    22    16    1
    37    11     6   ar
    38    20    23    1
    39    28    29    1
    40    33    36    1
@<TRIPOS>MOLECULE
*****
 36 40 0 0 0
SMALL
GASTEIGER

@<TRIPOS>ATOM
      1 N          63.3771   88.9708   13.9666 N.3     1  UNL1       -0.2679
      2 C          63.2810   89.6974   12.6579 C.3     1  UNL1        0.0978
      3 C          64.1484   90.8934   12.3986 C.3     1  UNL1        0.0224
      4 C          64.0524   91.6200   11.0898 C.3     1  UNL1        0.0065
      5 C          63.0889   91.1506   10.0404 C.3     1  UNL1        0.0277
      6 C          62.2215   89.9546   10.2997 C.ar    1  UNL1       -0.0073
      7 C          61.2581   89.4852    9.2502 C.ar    1  UNL1       -0.0015
      8 C          60.3906   88.2892    9.5095 C.ar    1  UNL1        0.0203
      9 C          60.4867   87.5626   10.8182 C.ar    1  UNL1        0.0985
     10 N          61.4501   88.0320   11.8676 N.ar    1  UNL1       -0.2471
     11 C          62.3175   89.2280   11.6084 C.ar    1  UNL1        0.0695
     12 C          64.3226   87.8159   14.1157 C.3     1  UNL1        0.0886
     13 C          62.0594   81.3872   13.2219 C.ar    1  UNL1       -0.0003
     14 C          62.4617   81.9553   11.8932 C.ar    1  UNL1       -0.0003
     15 C          62.9948   83.3546   11.8063 C.ar    1  UNL1       -0.0045
     16 C          63.1256   84.1859   13.0479 C.ar    1  UNL1       -0.0234
     17 C          62.7233   83.6178   14.3766 C.ar    1  UNL1       -0.0103
     18 C          62.1902   82.2184   14.4636 C.ar    1  UNL1       -0.0032
     19 C          62.8541   84.4491   15.6184 C.3     1  UNL1        0.0953
     20 N          63.3872   85.8484   15.5314 N.3     1  UNL1       -0.2934
     21 C          63.7895   86.4165   14.2027 C.3     1  UNL1        0.0748
     22 C          63.6587   85.5853   12.9610 C.3     1  UNL1        0.0432
     23 H          64.2122   85.8870   16.1301 H       1  UNL1        0.1236
     24 C          62.5275   89.3990   15.1263 C.3     1  UNL1        0.0725
     25 C          63.1276   89.5045   16.4970 C.3     1  UNL1        0.0188
     26 C          63.7040   90.8078   16.9652 C.3     1  UNL1        0.0185
     27 C          64.2311   91.7962   15.9675 C.3     1  UNL1        0.0686
     28 N          65.3588   92.7115   16.3424 N.3     1  UNL1       -0.2985
     29 H          65.5536   92.5493   17.3304 H       1  UNL1        0.1232
     30 C          66.6710   92.6191   15.6216 C.3     1  UNL1        0.0568
     31 C          66.7637   91.8692   14.3259 C.3     1  UNL1        0.0328
     32 C          68.0759   91.7768   13.6050 C.3     1  UNL1        0.0699
     33 N          69.2953   92.4344   14.1799 N.3     1  UNL1       -0.2974
     34 C          69.2026   93.1844   15.4756 C.3     1  UNL1        0.0699
     35 C          67.8904   93.2768   16.1965 C.3     1  UNL1        0.0328
     36 H          69.6306   93.0963   13.4799 H       1  UNL1        0.1232
@<TRIPOS>BOND
     1    13    14   ar
     2    14    15   ar
     3    15    16   ar
     4    16    17   ar
     5    17    18   ar
     6    17    19    1
     7    19    20    1
     8    20    21    1
     9    21    12    1
    10    12     1    1
    11     1    24    1
    12    24    25    1
    13    25    26    1
    14    26    27    1
    15    27    28    1
    16    28    30    1
    17    30    31    1
    18    31    32    1
    19    32    33    1
    20    33    34    1
    21    34    35    1
    22     2     1    1
    23     2     3    1
    24     3     4    1
    25     4     5    1
    26     5     6    1
    27     6     7   ar
    28     7     8   ar
    29     8     9   ar
    30     9    10   ar
    31    10    11   ar
    32    21    22    1
    33    18    13   ar
    34    35    30    1
    35    11     2    1
    36    22    16    1
    37    11     6   ar
    38    20    23    1
    39    28    29    1
    40    33    36    1
@<TRIPOS>MOLECULE
*****
 36 40 0 0 0
SMALL
GASTEIGER

@<TRIPOS>ATOM
      1 N          63.3762   88.8918   13.4685 N.3     1  UNL1       -0.2679
      2 C          62.9078   89.2583   12.0915 C.3     1  UNL1        0.0978
      3 C          63.1005   90.6555   11.5808 C.3     1  UNL1        0.0224
      4 C          62.6321   91.0219   10.2037 C.3     1  UNL1        0.0065
      5 C          61.9710   89.9913    9.3373 C.3     1  UNL1        0.0277
      6 C          61.7783   88.5941    9.8480 C.ar    1  UNL1       -0.0073
      7 C          61.1172   87.5635    8.9816 C.ar    1  UNL1       -0.0015
      8 C          60.9245   86.1663    9.4923 C.ar    1  UNL1        0.0203
      9 C          61.3928   85.7998   10.8693 C.ar    1  UNL1        0.0985
     10 N          62.0539   86.8304   11.7357 N.ar    1  UNL1       -0.2471
     11 C          62.2467   88.2276   11.2250 C.ar    1  UNL1        0.0695
     12 C          63.1755   89.8466   14.6079 C.3     1  UNL1        0.0886
     13 C          68.9425   93.4652   15.5550 C.ar    1  UNL1       -0.0003
     14 C          69.1212   92.5565   14.3750 C.ar    1  UNL1       -0.0003
     15 C          68.0036   91.6511   13.9496 C.ar    1  UNL1       -0.0045
     16 C          66.7072   91.6543   14.7042 C.ar    1  UNL1       -0.0234
     17 C          66.5285   92.5629   15.8841 C.ar    1  UNL1       -0.0103
     18 C          67.6462   93.4684   16.3095 C.ar    1  UNL1       -0.0032
     19 C          65.2321   92.5662   16.6388 C.3     1  UNL1        0.0953
     20 N          64.1144   91.6607   16.2133 N.3     1  UNL1       -0.2934
     21 C          64.2932   90.7520   15.0333 C.3     1  UNL1        0.0748
     22 C          65.5895   90.7488   14.2788 C.3     1  UNL1        0.0432
     23 H          63.3140   92.2582   16.0064 H       1  UNL1        0.1236
     24 C          64.0452   87.5704   13.7062 C.3     1  UNL1        0.0725
     25 C          64.3521   87.1262   15.1057 C.3     1  UNL1        0.0188
     26 C          64.3772   85.6641   15.4399 C.3     1  UNL1        0.0185
     27 C          63.1139   84.8579   15.3742 C.3     1  UNL1        0.0686
     28 N          62.4868   84.5535   14.0461 N.3     1  UNL1       -0.2985
     29 H          62.9333   85.1648   13.3625 H       1  UNL1        0.1232
     30 C          62.5490   83.1623   13.4886 C.3     1  UNL1        0.0568
     31 C          63.0490   82.9354   12.0927 C.3     1  UNL1        0.0328
     32 C          63.1112   81.5443   11.5352 C.3     1  UNL1        0.0699
     33 N          62.6734   80.3800   12.3735 N.3     1  UNL1       -0.2974
     34 C          62.1734   80.6070   13.7695 C.3     1  UNL1        0.0699
     35 C          62.1112   81.9981   14.3270 C.3     1  UNL1        0.0328
     36 H          63.4737   79.7518   12.4459 H       1  UNL1        0.1232
@<TRIPOS>BOND
     1    13    14   ar
     2    14    15   ar
     3    15    16   ar
     4    16    17   ar
     5    17    18   ar
     6    17    19    1
     7    19    20    1
     8    20    21    1
     9    21    12    1
    10    12     1    1
    11     1    24    1
    12    24    25    1
    13    25    26    1
    14    26    27    1
    15    27    28    1
    16    28    30    1
    17    30    31    1
    18    31    32    1
    19    32    33    1
    20    33    34    1
    21    34    35    1
    22     2     1    1
    23     2     3    1
    24     3     4    1
    25     4     5    1
    26     5     6    1
    27     6     7   ar
    28     7     8   ar
    29     8     9   ar
    30     9    10   ar
    31    10    11   ar
    32    21    22    1
    33    18    13   ar
    34    35    30    1
    35    11     2    1
    36    22    16    1
    37    11     6   ar
    38    20    23    1
    39    28    29    1
    40    33    36    1
@<TRIPOS>MOLECULE
*****
 36 40 0 0 0
SMALL
GASTEIGER

@<TRIPOS>ATOM
      1 N          63.7773   90.0076   13.6149 N.3     1  UNL1       -0.2679
      2 C          64.7154   91.1433   13.8976 C.3     1  UNL1        0.0978
      3 C          65.2301   91.3622   15.2894 C.3     1  UNL1        0.0224
      4 C          66.1682   92.4981   15.5721 C.3     1  UNL1        0.0065
      5 C          66.5916   93.4149   14.4631 C.3     1  UNL1        0.0277
      6 C          66.0769   93.1960   13.0712 C.ar    1  UNL1       -0.0073
      7 C          66.5003   94.1128   11.9622 C.ar    1  UNL1       -0.0015
      8 C          65.9856   93.8939   10.5703 C.ar    1  UNL1        0.0203
      9 C          65.0475   92.7581   10.2876 C.ar    1  UNL1        0.0985
     10 N          64.6241   91.8413   11.3967 N.ar    1  UNL1       -0.2471
     11 C          65.1388   92.0602   12.7885 C.ar    1  UNL1        0.0695
     12 C          62.3439   90.2864   13.2717 C.3     1  UNL1        0.0886
     13 C          60.4454   86.6311    7.7686 C.ar    1  UNL1       -0.0003
     14 C          61.5556   85.9123    8.4763 C.ar    1  UNL1       -0.0003
     15 C          62.1573   86.4996    9.7185 C.ar    1  UNL1       -0.0045
     16 C          61.6489   87.8057   10.2529 C.ar    1  UNL1       -0.0234
     17 C          60.5387   88.5245    9.5452 C.ar    1  UNL1       -0.0103
     18 C          59.9370   87.9372    8.3030 C.ar    1  UNL1       -0.0032
     19 C          60.0303   89.8306   10.0796 C.3     1  UNL1        0.0953
     20 N          60.6320   90.4179   11.3218 N.3     1  UNL1       -0.2934
     21 C          61.7422   89.6991   12.0296 C.3     1  UNL1        0.0748
     22 C          62.2506   88.3930   11.4951 C.3     1  UNL1        0.0432
     23 H          59.8731   90.5233   11.9951 H       1  UNL1        0.1236
     24 C          64.2725   88.5930   13.6752 C.3     1  UNL1        0.0725
     25 C          64.2901   87.8597   14.9836 C.3     1  UNL1        0.0188
     26 C          64.6262   86.3983   15.0199 C.3     1  UNL1        0.0185
     27 C          63.7737   85.4521   15.8124 C.3     1  UNL1        0.0686
     28 N          62.4930   84.9304   15.2314 N.3     1  UNL1       -0.2985
     29 H          61.9860   85.7362   14.8653 H       1  UNL1        0.1232
     30 C          62.5287   83.9069   14.1354 C.3     1  UNL1        0.0568
     31 C          62.8077   84.3294   12.7235 C.3     1  UNL1        0.0328
     32 C          62.8434   83.3059   11.6274 C.3     1  UNL1        0.0699
     33 N          62.6002   81.8599   11.9434 N.3     1  UNL1       -0.2974
     34 C          62.3212   81.4374   13.3554 C.3     1  UNL1        0.0699
     35 C          62.2854   82.4609   14.4514 C.3     1  UNL1        0.0328
     36 H          63.4298   81.3489   11.6416 H       1  UNL1        0.1232
@<TRIPOS>BOND
     1    13    14   ar
     2    14    15   ar
     3    15    16   ar
     4    16    17   ar
     5    17    18   ar
     6    17    19    1
     7    19    20    1
     8    20    21    1
     9    21    12    1
    10    12     1    1
    11     1    24    1
    12    24    25    1
    13    25    26    1
    14    26    27    1
    15    27    28    1
    16    28    30    1
    17    30    31    1
    18    31    32    1
    19    32    33    1
    20    33    34    1
    21    34    35    1
    22     2     1    1
    23     2     3    1
    24     3     4    1
    25     4     5    1
    26     5     6    1
    27     6     7   ar
    28     7     8   ar
    29     8     9   ar
    30     9    10   ar
    31    10    11   ar
    32    21    22    1
    33    18    13   ar
    34    35    30    1
    35    11     2    1
    36    22    16    1
    37    11     6   ar
    38    20    23    1
    39    28    29    1
    40    33    36    1
@<TRIPOS>MOLECULE
*****
 36 40 0 0 0
SMALL
GASTEIGER

@<TRIPOS>ATOM
      1 N          64.0374   87.6536   13.9719 N.3     1  UNL1       -0.2679
      2 C          63.2719   87.6454   12.6820 C.3     1  UNL1        0.0978
      3 C          62.6124   86.3838   12.2093 C.3     1  UNL1        0.0224
      4 C          61.8469   86.3756   10.9193 C.3     1  UNL1        0.0065
      5 C          61.7409   87.6289   10.1021 C.3     1  UNL1        0.0277
      6 C          62.4004   88.8905   10.5748 C.ar    1  UNL1       -0.0073
      7 C          62.2944   90.1439    9.7576 C.ar    1  UNL1       -0.0015
      8 C          62.9539   91.4055   10.2303 C.ar    1  UNL1        0.0203
      9 C          63.7194   91.4137   11.5202 C.ar    1  UNL1        0.0985
     10 N          63.8254   90.1604   12.3374 N.ar    1  UNL1       -0.2471
     11 C          63.1659   88.8988   11.8647 C.ar    1  UNL1        0.0695
     12 C          64.6479   86.3851   14.4899 C.3     1  UNL1        0.0886
     13 C          61.8373   80.2186   13.3391 C.ar    1  UNL1       -0.0003
     14 C          62.9487   80.4427   12.3570 C.ar    1  UNL1       -0.0003
     15 C          63.7330   81.7208   12.3907 C.ar    1  UNL1       -0.0045
     16 C          63.4061   82.7748   13.4066 C.ar    1  UNL1       -0.0234
     17 C          62.2948   82.5507   14.3887 C.ar    1  UNL1       -0.0103
     18 C          61.5104   81.2726   14.3550 C.ar    1  UNL1       -0.0032
     19 C          61.9678   83.6048   15.4047 C.3     1  UNL1        0.0953
     20 N          62.7522   84.8829   15.4384 N.3     1  UNL1       -0.2934
     21 C          63.8636   85.1070   14.4562 C.3     1  UNL1        0.0748
     22 C          64.1905   84.0530   13.4403 C.3     1  UNL1        0.0432
     23 H          63.1636   84.9514   16.3693 H       1  UNL1        0.1236
     24 C          64.1925   88.9304   14.7439 C.3     1  UNL1        0.0725
     25 C          63.4768   89.1087   16.0500 C.3     1  UNL1        0.0188
     26 C          63.4753   90.4468   16.7278 C.3     1  UNL1        0.0185
     27 C          63.8464   91.6787   15.9564 C.3     1  UNL1        0.0686
     28 N          65.0263   92.5021   16.3805 N.3     1  UNL1       -0.2985
     29 H          65.2402   92.2369   17.3419 H       1  UNL1        0.1232
     30 C          66.3123   92.4211   15.6127 C.3     1  UNL1        0.0568
     31 C          66.3042   91.9723   14.1815 C.3     1  UNL1        0.0328
     32 C          67.5903   91.8913   13.4136 C.3     1  UNL1        0.0699
     33 N          68.8843   92.2591   14.0770 N.3     1  UNL1       -0.2974
     34 C          68.8924   92.7079   15.5083 C.3     1  UNL1        0.0699
     35 C          67.6064   92.7889   16.2761 C.3     1  UNL1        0.0328
     36 H          69.2915   93.0167   13.5286 H       1  UNL1        0.1232
@<TRIPOS>BOND
     1    13    14   ar
     2    14    15   ar
     3    15    16   ar
     4    16    17   ar
     5    17    18   ar
     6    17    19    1
     7    19    20    1
     8    20    21    1
     9    21    12    1
    10    12     1    1
    11     1    24    1
    12    24    25    1
    13    25    26    1
    14    26    27    1
    15    27    28    1
    16    28    30    1
    17    30    31    1
    18    31    32    1
    19    32    33    1
    20    33    34    1
    21    34    35    1
    22     2     1    1
    23     2     3    1
    24     3     4    1
    25     4     5    1
    26     5     6    1
    27     6     7   ar
    28     7     8   ar
    29     8     9   ar
    30     9    10   ar
    31    10    11   ar
    32    21    22    1
    33    18    13   ar
    34    35    30    1
    35    11     2    1
    36    22    16    1
    37    11     6   ar
    38    20    23    1
    39    28    29    1
    40    33    36    1
@<TRIPOS>MOLECULE
*****
 36 40 0 0 0
SMALL
GASTEIGER

@<TRIPOS>ATOM
      1 N          61.5059   87.6356   11.3249 N.3     1  UNL1       -0.2679
      2 C          62.1589   86.4749   10.6347 C.3     1  UNL1        0.0978
      3 C          62.4071   86.5244    9.1562 C.3     1  UNL1        0.0224
      4 C          63.0600   85.3636    8.4660 C.3     1  UNL1        0.0065
      5 C          63.4647   84.1533    9.2543 C.3     1  UNL1        0.0277
      6 C          63.2165   84.1038   10.7328 C.ar    1  UNL1       -0.0073
      7 C          63.6212   82.8936   11.5212 C.ar    1  UNL1       -0.0015
      8 C          63.3730   82.8441   12.9997 C.ar    1  UNL1        0.0203
      9 C          62.7201   84.0048   13.6898 C.ar    1  UNL1        0.0985
     10 N          62.3154   85.2150   12.9015 N.ar    1  UNL1       -0.2471
     11 C          62.5636   85.2645   11.4230 C.ar    1  UNL1        0.0695
     12 C          62.2622   88.4150   12.3596 C.3     1  UNL1        0.0886
     13 C          66.2681   93.9679   11.7536 C.ar    1  UNL1       -0.0003
     14 C          66.4060   93.4120   13.1399 C.ar    1  UNL1       -0.0003
     15 C          65.6324   92.1902   13.5384 C.ar    1  UNL1       -0.0045
     16 C          64.7209   91.5243   12.5506 C.ar    1  UNL1       -0.0234
     17 C          64.5831   92.0803   11.1643 C.ar    1  UNL1       -0.0103
     18 C          65.3567   93.3021   10.7658 C.ar    1  UNL1       -0.0032
     19 C          63.6716   91.4145   10.1763 C.3     1  UNL1        0.0953
     20 N          62.8980   90.1927   10.5748 N.3     1  UNL1       -0.2934
     21 C          63.0358   89.6367   11.9612 C.3     1  UNL1        0.0748
     22 C          63.9473   90.3026   12.9490 C.3     1  UNL1        0.0432
     23 H          63.1694   89.4494    9.9311 H       1  UNL1        0.1236
     24 C          60.0968   88.0170   10.9803 C.3     1  UNL1        0.0725
     25 C          59.8262   89.2839   10.2243 C.3     1  UNL1        0.0188
     26 C          60.2672   89.4141    8.7965 C.3     1  UNL1        0.0185
     27 C          59.7677   88.4453    7.7659 C.3     1  UNL1        0.0686
     28 N          58.6421   88.8346    6.8541 N.3     1  UNL1       -0.2985
     29 H          57.8313   89.0128    7.4467 H       1  UNL1        0.1232
     30 C          58.7864   90.0220    5.9491 C.3     1  UNL1        0.0568
     31 C          60.1470   90.4503    5.4850 C.3     1  UNL1        0.0328
     32 C          60.2914   91.6378    4.5800 C.3     1  UNL1        0.0699
     33 N          59.0751   92.3970    4.1390 N.3     1  UNL1       -0.2974
     34 C          57.7145   91.9686    4.6031 C.3     1  UNL1        0.0699
     35 C          57.5702   90.7812    5.5081 C.3     1  UNL1        0.0328
     36 H          59.0620   92.3655    3.1196 H       1  UNL1        0.1232
@<TRIPOS>BOND
     1    13    14   ar
     2    14    15   ar
     3    15    16   ar
     4    16    17   ar
     5    17    18   ar
     6    17    19    1
     7    19    20    1
     8    20    21    1
     9    21    12    1
    10    12     1    1
    11     1    24    1
    12    24    25    1
    13    25    26    1
    14    26    27    1
    15    27    28    1
    16    28    30    1
    17    30    31    1
    18    31    32    1
    19    32    33    1
    20    33    34    1
    21    34    35    1
    22     2     1    1
    23     2     3    1
    24     3     4    1
    25     4     5    1
    26     5     6    1
    27     6     7   ar
    28     7     8   ar
    29     8     9   ar
    30     9    10   ar
    31    10    11   ar
    32    21    22    1
    33    18    13   ar
    34    35    30    1
    35    11     2    1
    36    22    16    1
    37    11     6   ar
    38    20    23    1
    39    28    29    1
    40    33    36    1
@<TRIPOS>MOLECULE
*****
 36 40 0 0 0
SMALL
GASTEIGER

@<TRIPOS>ATOM
      1 N          63.7403   90.1942   13.0821 N.3     1  UNL1       -0.2679
      2 C          64.5875   91.3523   12.6450 C.3     1  UNL1        0.0978
      3 C          64.5547   91.8086   11.2164 C.3     1  UNL1        0.0224
      4 C          65.4020   92.9667   10.7793 C.3     1  UNL1        0.0065
      5 C          66.2820   93.6685   11.7707 C.3     1  UNL1        0.0277
      6 C          66.3148   93.2122   13.1993 C.ar    1  UNL1       -0.0073
      7 C          67.1949   93.9140   14.1907 C.ar    1  UNL1       -0.0015
      8 C          67.2277   93.4577   15.6193 C.ar    1  UNL1        0.0203
      9 C          66.3805   92.2997   16.0564 C.ar    1  UNL1        0.0985
     10 N          65.5005   91.5979   15.0650 N.ar    1  UNL1       -0.2471
     11 C          65.4676   92.0541   13.6364 C.ar    1  UNL1        0.0695
     12 C          62.2933   90.1339   12.6914 C.3     1  UNL1        0.0886
     13 C          59.6452   86.5560    7.4534 C.ar    1  UNL1       -0.0003
     14 C          59.3081   88.0069    7.2771 C.ar    1  UNL1       -0.0003
     15 C          59.7703   89.0126    8.2895 C.ar    1  UNL1       -0.0045
     16 C          60.5696   88.5675    9.4781 C.ar    1  UNL1       -0.0234
     17 C          60.9067   87.1166    9.6544 C.ar    1  UNL1       -0.0103
     18 C          60.4446   86.1108    8.6420 C.ar    1  UNL1       -0.0032
     19 C          61.7061   86.6714   10.8431 C.3     1  UNL1        0.0953
     20 N          62.1683   87.6771   11.8554 N.3     1  UNL1       -0.2934
     21 C          61.8311   89.1281   11.6790 C.3     1  UNL1        0.0748
     22 C          61.0318   89.5733   10.4904 C.3     1  UNL1        0.0432
     23 H          63.1857   87.6134   11.8905 H       1  UNL1        0.1236
     24 C          64.3400   89.0965   13.9099 C.3     1  UNL1        0.0725
     25 C          63.6905   88.6890   15.1991 C.3     1  UNL1        0.0188
     26 C          63.9639   87.3338   15.7811 C.3     1  UNL1        0.0185
     27 C          64.2558   86.1738   14.8759 C.3     1  UNL1        0.0686
     28 N          63.7145   84.8134   15.2019 N.3     1  UNL1       -0.2985
     29 H          62.8794   84.9571   15.7698 H       1  UNL1        0.1232
     30 C          63.3305   83.8744   14.0970 C.3     1  UNL1        0.0568
     31 C          62.5948   82.6059   14.4126 C.3     1  UNL1        0.0328
     32 C          62.2108   81.6669   13.3076 C.3     1  UNL1        0.0699
     33 N          62.5625   81.9965   11.8872 N.3     1  UNL1       -0.2974
     34 C          63.2982   83.2650   11.5716 C.3     1  UNL1        0.0699
     35 C          63.6822   84.2040   12.6766 C.3     1  UNL1        0.0328
     36 H          61.6860   82.0271   11.3663 H       1  UNL1        0.1232
@<TRIPOS>BOND
     1    13    14   ar
     2    14    15   ar
     3    15    16   ar
     4    16    17   ar
     5    17    18   ar
     6    17    19    1
     7    19    20    1
     8    20    21    1
     9    21    12    1
    10    12     1    1
    11     1    24    1
    12    24    25    1
    13    25    26    1
    14    26    27    1
    15    27    28    1
    16    28    30    1
    17    30    31    1
    18    31    32    1
    19    32    33    1
    20    33    34    1
    21    34    35    1
    22     2     1    1
    23     2     3    1
    24     3     4    1
    25     4     5    1
    26     5     6    1
    27     6     7   ar
    28     7     8   ar
    29     8     9   ar
    30     9    10   ar
    31    10    11   ar
    32    21    22    1
    33    18    13   ar
    34    35    30    1
    35    11     2    1
    36    22    16    1
    37    11     6   ar
    38    20    23    1
    39    28    29    1
    40    33    36    1
@<TRIPOS>MOLECULE
*****
 36 40 0 0 0
SMALL
GASTEIGER

@<TRIPOS>ATOM
      1 N          61.9863   87.8613   10.9603 N.3     1  UNL1       -0.2679
      2 C          62.6879   89.1766   11.1265 C.3     1  UNL1        0.0978
      3 C          62.6587   90.1875   10.0187 C.3     1  UNL1        0.0224
      4 C          63.3605   91.5028   10.1850 C.3     1  UNL1        0.0065
      5 C          64.0913   91.8072   11.4590 C.3     1  UNL1        0.0277
      6 C          64.1204   90.7963   12.5668 C.ar    1  UNL1       -0.0073
      7 C          64.8513   91.1007   13.8409 C.ar    1  UNL1       -0.0015
      8 C          64.8804   90.0898   14.9487 C.ar    1  UNL1        0.0203
      9 C          64.1788   88.7745   14.7824 C.ar    1  UNL1        0.0985
     10 N          63.4480   88.4701   13.5084 N.ar    1  UNL1       -0.2471
     11 C          63.4188   89.4810   12.4006 C.ar    1  UNL1        0.0695
     12 C          62.7754   86.6245   10.6476 C.3     1  UNL1        0.0886
     13 C          62.6515   80.5326   13.8292 C.ar    1  UNL1       -0.0003
     14 C          62.7538   80.3115   12.3492 C.ar    1  UNL1       -0.0003
     15 C          62.7991   81.4857   11.4168 C.ar    1  UNL1       -0.0045
     16 C          62.7420   82.8809   11.9646 C.ar    1  UNL1       -0.0234
     17 C          62.6396   83.1020   13.4446 C.ar    1  UNL1       -0.0103
     18 C          62.5944   81.9278   14.3770 C.ar    1  UNL1       -0.0032
     19 C          62.5825   84.4973   13.9924 C.3     1  UNL1        0.0953
     20 N          62.6278   85.6714   13.0601 N.3     1  UNL1       -0.2934
     21 C          62.7301   85.4503   11.5799 C.3     1  UNL1        0.0748
     22 C          62.7872   84.0551   11.0322 C.3     1  UNL1        0.0432
     23 H          63.4363   86.2314   13.3307 H       1  UNL1        0.1236
     24 C          60.4955   87.7827   11.1067 C.3     1  UNL1        0.0725
     25 C          59.6218   87.7693    9.8875 C.3     1  UNL1        0.0188
     26 C          60.2008   88.1088    8.5461 C.3     1  UNL1        0.0185
     27 C          59.3682   87.9515    7.3083 C.3     1  UNL1        0.0686
     28 N          58.3270   88.9767    6.9694 N.3     1  UNL1       -0.2985
     29 H          58.0498   89.4161    7.8472 H       1  UNL1        0.1232
     30 C          58.6502   90.0861    6.0130 C.3     1  UNL1        0.0568
     31 C          57.5479   90.9241    5.4364 C.3     1  UNL1        0.0328
     32 C          57.8710   92.0335    4.4799 C.3     1  UNL1        0.0699
     33 N          59.2965   92.3049    4.1001 N.3     1  UNL1       -0.2974
     34 C          60.3989   91.4669    4.6768 C.3     1  UNL1        0.0699
     35 C          60.0757   90.3575    5.6332 C.3     1  UNL1        0.0328
     36 H          59.4925   93.2708    4.3631 H       1  UNL1        0.1232
@<TRIPOS>BOND
     1    13    14   ar
     2    14    15   ar
     3    15    16   ar
     4    16    17   ar
     5    17    18   ar
     6    17    19    1
     7    19    20    1
     8    20    21    1
     9    21    12    1
    10    12     1    1
    11     1    24    1
    12    24    25    1
    13    25    26    1
    14    26    27    1
    15    27    28    1
    16    28    30    1
    17    30    31    1
    18    31    32    1
    19    32    33    1
    20    33    34    1
    21    34    35    1
    22     2     1    1
    23     2     3    1
    24     3     4    1
    25     4     5    1
    26     5     6    1
    27     6     7   ar
    28     7     8   ar
    29     8     9   ar
    30     9    10   ar
    31    10    11   ar
    32    21    22    1
    33    18    13   ar
    34    35    30    1
    35    11     2    1
    36    22    16    1
    37    11     6   ar
    38    20    23    1
    39    28    29    1
    40    33    36    1
@<TRIPOS>MOLECULE
*****
 36 40 0 0 0
SMALL
GASTEIGER

@<TRIPOS>ATOM
      1 N          63.2477   85.2953   12.9951 N.3     1  UNL1       -0.2679
      2 C          63.3951   84.0839   12.1229 C.3     1  UNL1        0.0978
      3 C          64.0161   84.2097   10.7632 C.3     1  UNL1        0.0224
      4 C          64.1635   82.9982    9.8910 C.3     1  UNL1        0.0065
      5 C          63.6900   81.6611   10.3785 C.3     1  UNL1        0.0277
      6 C          63.0690   81.5353   11.7381 C.ar    1  UNL1       -0.0073
      7 C          62.5955   80.1981   12.2256 C.ar    1  UNL1       -0.0015
      8 C          61.9746   80.0723   13.5852 C.ar    1  UNL1        0.0203
      9 C          61.8272   81.2837   14.4574 C.ar    1  UNL1        0.0985
     10 N          62.3007   82.6209   13.9700 N.ar    1  UNL1       -0.2471
     11 C          62.9216   82.7466   12.6103 C.ar    1  UNL1        0.0695
     12 C          61.9429   86.0341   13.0383 C.3     1  UNL1        0.0886
     13 C          59.6022   88.8353    7.2138 C.ar    1  UNL1       -0.0003
     14 C          59.3425   87.3582    7.1873 C.ar    1  UNL1       -0.0003
     15 C          59.7587   86.5026    8.3469 C.ar    1  UNL1       -0.0045
     16 C          60.4346   87.1240    9.5330 C.ar    1  UNL1       -0.0234
     17 C          60.6943   88.6010    9.5595 C.ar    1  UNL1       -0.0103
     18 C          60.2781   89.4567    8.4000 C.ar    1  UNL1       -0.0032
     19 C          61.3703   89.2225   10.7457 C.3     1  UNL1        0.0953
     20 N          61.7865   88.3669   11.9053 N.3     1  UNL1       -0.2934
     21 C          61.5267   86.8897   11.8787 C.3     1  UNL1        0.0748
     22 C          60.8508   86.2683   10.6926 C.3     1  UNL1        0.0432
     23 H          61.3101   88.7349   12.7287 H       1  UNL1        0.1236
     24 C          64.4050   85.7680   13.8240 C.3     1  UNL1        0.0725
     25 C          64.2117   86.8709   14.8221 C.3     1  UNL1        0.0188
     26 C          64.4621   88.2952   14.4239 C.3     1  UNL1        0.0185
     27 C          63.5782   89.3874   14.9495 C.3     1  UNL1        0.0686
     28 N          63.1721   90.5199   14.0537 N.3     1  UNL1       -0.2985
     29 H          62.7189   91.2158   14.6459 H       1  UNL1        0.1232
     30 C          64.2072   91.2461   13.2467 C.3     1  UNL1        0.0568
     31 C          63.9760   91.5026   11.7870 C.3     1  UNL1        0.0328
     32 C          65.0111   92.2288   10.9800 C.3     1  UNL1        0.0699
     33 N          66.2773   92.6985   11.6327 N.3     1  UNL1       -0.2974
     34 C          66.5085   92.4419   13.0924 C.3     1  UNL1        0.0699
     35 C          65.4734   91.7158   13.8994 C.3     1  UNL1        0.0328
     36 H          66.3191   93.7091   11.5011 H       1  UNL1        0.1232
@<TRIPOS>BOND
     1    13    14   ar
     2    14    15   ar
     3    15    16   ar
     4    16    17   ar
     5    17    18   ar
     6    17    19    1
     7    19    20    1
     8    20    21    1
     9    21    12    1
    10    12     1    1
    11     1    24    1
    12    24    25    1
    13    25    26    1
    14    26    27    1
    15    27    28    1
    16    28    30    1
    17    30    31    1
    18    31    32    1
    19    32    33    1
    20    33    34    1
    21    34    35    1
    22     2     1    1
    23     2     3    1
    24     3     4    1
    25     4     5    1
    26     5     6    1
    27     6     7   ar
    28     7     8   ar
    29     8     9   ar
    30     9    10   ar
    31    10    11   ar
    32    21    22    1
    33    18    13   ar
    34    35    30    1
    35    11     2    1
    36    22    16    1
    37    11     6   ar
    38    20    23    1
    39    28    29    1
    40    33    36    1
