@<TRIPOS>MOLECULE
*****
 38 42 0 0 0
SMALL
GASTEIGER

@<TRIPOS>ATOM
      1 C          63.1306   86.9851   13.0336 C.ar    1  UNL1        0.0502
      2 C          63.9753   87.5092   14.1568 C.ar    1  UNL1        0.0143
      3 C          64.5468   88.8941   14.0823 C.ar    1  UNL1       -0.0030
      4 C          64.2734   89.7548   12.8847 C.ar    1  UNL1       -0.0223
      5 C          63.4287   89.2307   11.7615 C.ar    1  UNL1       -0.0034
      6 C          62.8573   87.8458   11.8359 C.ar    1  UNL1        0.0089
      7 C          64.8449   91.1397   12.8103 C.3     1  UNL1        0.0251
      8 C          65.5683   91.7170   13.9907 C.3     1  UNL1        0.0217
      9 C          66.1398   93.1019   13.9163 C.3     1  UNL1        0.0725
     10 N          65.9878   93.9095   12.6614 N.3     1  UNL1       -0.2715
     11 C          65.2644   93.3322   11.4810 C.3     1  UNL1        0.0725
     12 C          64.6929   91.9474   11.5554 C.3     1  UNL1        0.0217
     13 C          66.5593   95.2944   12.5869 C.3     1  UNL1        0.0896
     14 C          65.8724   96.3460   11.7671 C.3     1  UNL1        0.0898
     15 N          66.0179   96.3469   10.2741 N.3     1  UNL1       -0.2672
     16 C          67.2820   95.8426    9.6434 C.3     1  UNL1        0.1047
     17 C          67.4275   95.8435    8.1506 C.3     1  UNL1        0.1595
     18 O          66.3089   96.3486    7.2883 O.3     1  UNL1       -0.3508
     19 C          65.0448   96.8529    7.9189 C.3     1  UNL1        0.1595
     20 C          64.8993   96.8520    9.4118 C.3     1  UNL1        0.1047
     21 C          62.0125   87.3217   10.7127 C.2     1  UNL1       -0.0253
     22 C          62.6035   86.3793    9.7064 C.2     1  UNL1       -0.0303
     23 C          61.7588   85.8551    8.5832 C.3     1  UNL1        0.0257
     24 C          60.3229   86.2733    8.4662 C.3     1  UNL1        0.0050
     25 C          59.7319   87.2157    9.4725 C.3     1  UNL1        0.0050
     26 C          60.5767   87.7398   10.5958 C.3     1  UNL1        0.0261
     27 C          63.4388   84.4451   13.4849 C.2     1  UNL1        0.2837
     28 O          64.8899   84.6750   13.7875 O.2     1  UNL1       -0.2665
     29 N          62.5591   85.6002   13.1080 N.am    1  UNL1       -0.2779
     30 H          61.6067   85.4493   12.9094 H       1  UNL1        0.1553
     31 C          61.3407   81.2099   13.9281 C.ar    1  UNL1        0.1469
     32 C          62.6354   80.6483   13.4197 C.ar    1  UNL1        0.1282
     33 N          63.5789   81.7919   13.1918 N.ar    1  UNL1       -0.2205
     34 C          62.8674   83.0603   13.5594 C.ar    1  UNL1        0.1958
     35 N          61.4841   82.7005   14.0144 N.ar    1  UNL1       -0.3257
     36 H          60.7918   83.3319   14.3167 H       1  UNL1        0.1682
     37 N          58.8941   79.6292   14.6462 N.1     1  UNL1       -0.1893
     38 C          60.1174   80.4196   14.2872 C.1     1  UNL1        0.1194
@<TRIPOS>BOND
     1    37    38    3
     2    38    31    1
     3    31    32   ar
     4    32    33   ar
     5    33    34   ar
     6    34    27    1
     7    27    28    2
     8    27    29   am
     9    29     1    1
    10     1     2   ar
    11     2     3   ar
    12     3     4   ar
    13     4     7    1
    14     7     8    1
    15     8     9    1
    16     9    10    1
    17    10    13    1
    18    13    14    1
    19    14    15    1
    20    15    16    1
    21    16    17    1
    22    17    18    1
    23    18    19    1
    24    19    20    1
    25    10    11    1
    26    11    12    1
    27     4     5   ar
    28     5     6   ar
    29     6    21    1
    30    21    22    2
    31    22    23    1
    32    23    24    1
    33    24    25    1
    34    25    26    1
    35    34    35   ar
    36    35    31   ar
    37     6     1   ar
    38    26    21    1
    39    12     7    1
    40    20    15    1
    41    29    30    1
    42    35    36    1
@<TRIPOS>MOLECULE
*****
 38 42 0 0 0
SMALL
GASTEIGER

@<TRIPOS>ATOM
      1 C          63.1641   86.9959   13.0881 C.ar    1  UNL1        0.0502
      2 C          64.0266   87.5166   14.1993 C.ar    1  UNL1        0.0143
      3 C          64.5918   88.9039   14.1228 C.ar    1  UNL1       -0.0030
      4 C          64.2945   89.7705   12.9351 C.ar    1  UNL1       -0.0223
      5 C          63.4319   89.2497   11.8239 C.ar    1  UNL1       -0.0034
      6 C          62.8667   87.8624   11.9004 C.ar    1  UNL1        0.0089
      7 C          64.8597   91.1578   12.8587 C.3     1  UNL1        0.0251
      8 C          64.7113   91.9599   11.5998 C.3     1  UNL1        0.0217
      9 C          65.2765   93.3472   11.5234 C.3     1  UNL1        0.0725
     10 N          65.9902   93.9325   12.7058 N.3     1  UNL1       -0.2715
     11 C          66.1387   93.1304   13.9646 C.3     1  UNL1        0.0725
     12 C          65.5734   91.7431   14.0411 C.3     1  UNL1        0.0217
     13 C          66.5554   95.3198   12.6294 C.3     1  UNL1        0.0896
     14 C          65.8627   96.3678   11.8097 C.3     1  UNL1        0.0898
     15 N          65.9952   96.3602   10.3156 N.3     1  UNL1       -0.2672
     16 C          64.8670   96.8556    9.4601 C.3     1  UNL1        0.1047
     17 C          64.9995   96.8481    7.9660 C.3     1  UNL1        0.1595
     18 O          66.2601   96.3451    7.3274 O.3     1  UNL1       -0.3508
     19 C          67.3883   95.8497    8.1828 C.3     1  UNL1        0.1595
     20 C          67.2558   95.8572    9.6769 C.3     1  UNL1        0.1047
     21 C          62.0041   87.3416   10.7892 C.2     1  UNL1       -0.0253
     22 C          60.6813   87.9874   10.5011 C.2     1  UNL1       -0.0303
     23 C          59.8187   87.4667    9.3899 C.3     1  UNL1        0.0257
     24 C          60.2789   86.3001    8.5668 C.3     1  UNL1        0.0050
     25 C          61.6018   85.6543    8.8550 C.3     1  UNL1        0.0050
     26 C          62.4644   86.1751    9.9662 C.3     1  UNL1        0.0261
     27 C          63.4805   84.4600   13.5568 C.2     1  UNL1        0.2837
     28 O          64.9273   84.6989   13.8725 O.2     1  UNL1       -0.2665
     29 N          62.5988   85.6085   13.1646 N.am    1  UNL1       -0.2779
     30 H          61.6492   85.4517   12.9574 H       1  UNL1        0.1553
     31 C          61.3889   81.2180   13.9808 C.ar    1  UNL1        0.1469
     32 C          62.7022   80.6576   13.5211 C.ar    1  UNL1        0.1282
     33 N          63.6455   81.8039   13.3063 N.ar    1  UNL1       -0.2205
     34 C          62.9153   83.0727   13.6332 C.ar    1  UNL1        0.1958
     35 N          61.5206   82.7106   14.0501 N.ar    1  UNL1       -0.3257
     36 H          60.8155   83.3418   14.3215 H       1  UNL1        0.1682
     37 N          58.9305   79.6320   14.6449 N.1     1  UNL1       -0.1893
     38 C          60.1597   80.4250   14.3128 C.1     1  UNL1        0.1194
@<TRIPOS>BOND
     1    37    38    3
     2    38    31    1
     3    31    32   ar
     4    32    33   ar
     5    33    34   ar
     6    34    27    1
     7    27    28    2
     8    27    29   am
     9    29     1    1
    10     1     2   ar
    11     2     3   ar
    12     3     4   ar
    13     4     7    1
    14     7     8    1
    15     8     9    1
    16     9    10    1
    17    10    13    1
    18    13    14    1
    19    14    15    1
    20    15    16    1
    21    16    17    1
    22    17    18    1
    23    18    19    1
    24    19    20    1
    25    10    11    1
    26    11    12    1
    27     4     5   ar
    28     5     6   ar
    29     6    21    1
    30    21    22    2
    31    22    23    1
    32    23    24    1
    33    24    25    1
    34    25    26    1
    35    34    35   ar
    36    35    31   ar
    37     6     1   ar
    38    26    21    1
    39    12     7    1
    40    20    15    1
    41    29    30    1
    42    35    36    1
@<TRIPOS>MOLECULE
*****
 38 42 0 0 0
SMALL
GASTEIGER

@<TRIPOS>ATOM
      1 C          60.5811   87.5050    9.7991 C.ar    1  UNL1        0.0502
      2 C          59.6596   87.0409    8.7103 C.ar    1  UNL1        0.0143
      3 C          59.3741   87.9328    7.5386 C.ar    1  UNL1       -0.0030
      4 C          60.0100   89.2888    7.4557 C.ar    1  UNL1       -0.0223
      5 C          60.9315   89.7529    8.5445 C.ar    1  UNL1       -0.0034
      6 C          61.2170   88.8610    9.7162 C.ar    1  UNL1        0.0089
      7 C          59.7245   90.1807    6.2839 C.3     1  UNL1        0.0251
      8 C          60.8528   90.6932    5.4389 C.3     1  UNL1        0.0217
      9 C          60.5673   91.5851    4.2671 C.3     1  UNL1        0.0725
     10 N          59.1533   91.9645    3.9404 N.3     1  UNL1       -0.2715
     11 C          58.0249   91.4520    4.7855 C.3     1  UNL1        0.0725
     12 C          58.3105   90.5601    5.9572 C.3     1  UNL1        0.0217
     13 C          58.8677   92.8564    2.7687 C.3     1  UNL1        0.0896
     14 C          59.7402   92.7961    1.5501 C.3     1  UNL1        0.0898
     15 N          60.9738   93.6455    1.4681 N.3     1  UNL1       -0.2672
     16 C          62.3155   93.0029    1.2765 C.3     1  UNL1        0.1047
     17 C          63.5491   93.8524    1.1945 C.3     1  UNL1        0.1595
     18 O          63.4409   95.3444    1.3041 O.3     1  UNL1       -0.3508
     19 C          62.0991   95.9871    1.4956 C.3     1  UNL1        0.1595
     20 C          60.8656   95.1376    1.5776 C.3     1  UNL1        0.1047
     21 C          62.1385   89.3250   10.8051 C.2     1  UNL1       -0.0253
     22 C          62.6562   88.3465   11.8172 C.2     1  UNL1       -0.0303
     23 C          63.5776   88.8105   12.9060 C.3     1  UNL1        0.0257
     24 C          63.9814   90.2531   12.9828 C.3     1  UNL1        0.0050
     25 C          63.4637   91.2317   11.9706 C.3     1  UNL1        0.0050
     26 C          62.5423   90.7676   10.8818 C.3     1  UNL1        0.0261
     27 C          61.9542   85.5837   10.8824 C.2     1  UNL1        0.2837
     28 O          62.7561   85.4463    9.6222 O.2     1  UNL1       -0.2665
     29 N          60.8667   86.6131   10.9709 N.am    1  UNL1       -0.2779
     30 H          60.3403   86.7033   11.7980 H       1  UNL1        0.1553
     31 C          62.7192   82.7281   13.3974 C.ar    1  UNL1        0.1469
     32 C          62.6393   83.9105   14.3170 C.ar    1  UNL1        0.1282
     33 N          62.3429   85.1241   13.4868 N.ar    1  UNL1       -0.2205
     34 C          62.2398   84.6918   12.0541 C.ar    1  UNL1        0.1958
     35 N          62.4723   83.2110   11.9989 N.ar    1  UNL1       -0.3257
     36 H          62.4644   82.6539   11.1872 H       1  UNL1        0.1682
     37 N          63.2754   79.8949   14.2122 N.1     1  UNL1       -0.1893
     38 C          62.9973   81.3115   13.8048 C.1     1  UNL1        0.1194
@<TRIPOS>BOND
     1    37    38    3
     2    38    31    1
     3    31    32   ar
     4    32    33   ar
     5    33    34   ar
     6    34    27    1
     7    27    28    2
     8    27    29   am
     9    29     1    1
    10     1     2   ar
    11     2     3   ar
    12     3     4   ar
    13     4     7    1
    14     7     8    1
    15     8     9    1
    16     9    10    1
    17    10    13    1
    18    13    14    1
    19    14    15    1
    20    15    16    1
    21    16    17    1
    22    17    18    1
    23    18    19    1
    24    19    20    1
    25    10    11    1
    26    11    12    1
    27     4     5   ar
    28     5     6   ar
    29     6    21    1
    30    21    22    2
    31    22    23    1
    32    23    24    1
    33    24    25    1
    34    25    26    1
    35    34    35   ar
    36    35    31   ar
    37     6     1   ar
    38    26    21    1
    39    12     7    1
    40    20    15    1
    41    29    30    1
    42    35    36    1
@<TRIPOS>MOLECULE
*****
 38 42 0 0 0
SMALL
GASTEIGER

@<TRIPOS>ATOM
      1 C          60.5946   87.4766    9.8128 C.ar    1  UNL1        0.0502
      2 C          59.6760   87.0032    8.7257 C.ar    1  UNL1        0.0143
      3 C          59.3823   87.8908    7.5527 C.ar    1  UNL1       -0.0030
      4 C          60.0071   89.2517    7.4669 C.ar    1  UNL1       -0.0223
      5 C          60.9258   89.7251    8.5541 C.ar    1  UNL1       -0.0034
      6 C          61.2195   88.8375    9.7270 C.ar    1  UNL1        0.0089
      7 C          59.7134   90.1393    6.2938 C.3     1  UNL1        0.0251
      8 C          58.2985   90.5294    5.9842 C.3     1  UNL1        0.0217
      9 C          58.0047   91.4169    4.8112 C.3     1  UNL1        0.0725
     10 N          59.1259   91.9144    3.9477 N.3     1  UNL1       -0.2715
     11 C          60.5409   91.5242    4.2574 C.3     1  UNL1        0.0725
     12 C          60.8346   90.6367    5.4304 C.3     1  UNL1        0.0217
     13 C          58.8322   92.8019    2.7747 C.3     1  UNL1        0.0896
     14 C          59.9593   93.3953    1.9825 C.3     1  UNL1        0.0898
     15 N          59.9220   93.3605    0.4833 N.3     1  UNL1       -0.2672
     16 C          61.1857   93.5478   -0.3028 C.3     1  UNL1        0.1047
     17 C          61.1484   93.5130   -1.8019 C.3     1  UNL1        0.1595
     18 O          59.8475   93.2909   -2.5149 O.3     1  UNL1       -0.3508
     19 C          58.5838   93.1036   -1.7287 C.3     1  UNL1        0.1595
     20 C          58.6211   93.1384   -0.2296 C.3     1  UNL1        0.1047
     21 C          62.1381   89.3109   10.8143 C.2     1  UNL1       -0.0253
     22 C          62.6644   88.3383   11.8278 C.2     1  UNL1       -0.0303
     23 C          63.5830   88.8116   12.9150 C.3     1  UNL1        0.0257
     24 C          63.9754   90.2576   12.9888 C.3     1  UNL1        0.0050
     25 C          63.4491   91.2302   11.9753 C.3     1  UNL1        0.0050
     26 C          62.5304   90.7568   10.8881 C.3     1  UNL1        0.0261
     27 C          61.9700   85.5541   10.8910 C.2     1  UNL1        0.2837
     28 O          62.7578   85.4067    9.6231 O.2     1  UNL1       -0.2665
     29 N          60.8883   86.5890   10.9859 N.am    1  UNL1       -0.2779
     30 H          60.3713   86.6858   11.8181 H       1  UNL1        0.1553
     31 C          62.7564   82.7085   13.4107 C.ar    1  UNL1        0.1469
     32 C          62.6752   83.8930   14.3274 C.ar    1  UNL1        0.1282
     33 N          62.3707   85.1032   13.4951 N.ar    1  UNL1       -0.2205
     34 C          62.2637   84.6666   12.0640 C.ar    1  UNL1        0.1958
     35 N          62.5021   83.1866   12.0119 N.ar    1  UNL1       -0.3257
     36 H          62.4932   82.6272   11.2018 H       1  UNL1        0.1682
     37 N          63.3273   79.8798   14.2310 N.1     1  UNL1       -0.1893
     38 C          63.0419   81.2941   13.8209 C.1     1  UNL1        0.1194
@<TRIPOS>BOND
     1    37    38    3
     2    38    31    1
     3    31    32   ar
     4    32    33   ar
     5    33    34   ar
     6    34    27    1
     7    27    28    2
     8    27    29   am
     9    29     1    1
    10     1     2   ar
    11     2     3   ar
    12     3     4   ar
    13     4     7    1
    14     7     8    1
    15     8     9    1
    16     9    10    1
    17    10    13    1
    18    13    14    1
    19    14    15    1
    20    15    16    1
    21    16    17    1
    22    17    18    1
    23    18    19    1
    24    19    20    1
    25    10    11    1
    26    11    12    1
    27     4     5   ar
    28     5     6   ar
    29     6    21    1
    30    21    22    2
    31    22    23    1
    32    23    24    1
    33    24    25    1
    34    25    26    1
    35    34    35   ar
    36    35    31   ar
    37     6     1   ar
    38    26    21    1
    39    12     7    1
    40    20    15    1
    41    29    30    1
    42    35    36    1
