@<TRIPOS>MOLECULE
*****
 30 33 0 0 0
SMALL
GASTEIGER

@<TRIPOS>ATOM
      1 C          66.0388   92.8663   12.0000 C.3     1  UNL1        0.1031
      2 F          67.4931   96.7260    7.6426 F       1  UNL1       -0.2042
      3 C          67.1296   95.7611    8.7319 C.ar    1  UNL1        0.1401
      4 C          67.6931   94.3711    8.7215 C.ar    1  UNL1        0.0294
      5 C          67.3296   93.4061    9.8108 C.ar    1  UNL1       -0.0003
      6 C          66.4024   93.8312   10.9106 C.ar    1  UNL1       -0.0035
      7 C          65.8388   95.2212   10.9211 C.ar    1  UNL1       -0.0003
      8 C          66.2024   96.1862    9.8317 C.ar    1  UNL1        0.0294
      9 C          66.9038   92.7520   13.2201 C.ar    1  UNL1       -0.0035
     10 C          66.5473   93.5079   14.4658 C.ar    1  UNL1       -0.0003
     11 C          67.4122   93.3936   15.6859 C.ar    1  UNL1        0.0294
     12 C          68.6337   92.5234   15.6605 C.ar    1  UNL1        0.1401
     13 F          69.4986   92.4091   16.8807 F       1  UNL1       -0.2042
     14 C          68.9902   91.7674   14.4150 C.ar    1  UNL1        0.0294
     15 C          68.1253   91.8817   13.1947 C.ar    1  UNL1       -0.0003
     16 N          64.8103   92.0157   11.8692 N.3     1  UNL1       -0.2644
     17 C          64.0865   91.9401   10.5576 C.3     1  UNL1        0.0901
     18 C          62.8580   91.0894   10.4269 C.3     1  UNL1        0.0899
     19 N          62.3532   90.3144   11.6078 N.3     1  UNL1       -0.2665
     20 C          63.0770   90.3899   12.9194 C.3     1  UNL1        0.0899
     21 C          64.3055   91.2406   13.0502 C.3     1  UNL1        0.0901
     22 C          61.1246   89.4637   11.4770 C.3     1  UNL1        0.0989
     23 C          60.9765   88.5347   10.3087 C.2     1  UNL1       -0.0088
     24 C          61.9433   87.4030   10.1231 C.2     1  UNL1       -0.0032
     25 C          61.7952   86.4740    8.9547 C.ar    1  UNL1       -0.0003
     26 C          60.4730   86.3512    8.2571 C.ar    1  UNL1       -0.0000
     27 C          60.3249   85.4222    7.0888 C.ar    1  UNL1       -0.0000
     28 C          61.4990   84.6160    6.6181 C.ar    1  UNL1       -0.0000
     29 C          62.8211   84.7388    7.3157 C.ar    1  UNL1       -0.0000
     30 C          62.9693   85.6678    8.4840 C.ar    1  UNL1       -0.0000
@<TRIPOS>BOND
     1     2     3    1
     2     3     4   ar
     3     4     5   ar
     4     5     6   ar
     5     6     1    1
     6     1     9    1
     7     9    10   ar
     8    10    11   ar
     9    11    12   ar
    10    12    13    1
    11    12    14   ar
    12    14    15   ar
    13     1    16    1
    14    16    17    1
    15    17    18    1
    16    18    19    1
    17    19    22    1
    18    22    23    1
    19    23    24    2
    20    24    25    1
    21    25    26   ar
    22    26    27   ar
    23    27    28   ar
    24    28    29   ar
    25    29    30   ar
    26    19    20    1
    27    20    21    1
    28     6     7   ar
    29     7     8   ar
    30     8     3   ar
    31    15     9   ar
    32    21    16    1
    33    30    25   ar
@<TRIPOS>MOLECULE
*****
 30 33 0 0 0
SMALL
GASTEIGER

@<TRIPOS>ATOM
      1 C          66.0308   92.8621   11.9924 C.3     1  UNL1        0.1031
      2 F          69.5144   92.3730   16.8529 F       1  UNL1       -0.2042
      3 C          68.6435   92.4953   15.6378 C.ar    1  UNL1        0.1401
      4 C          67.4166   93.3572   15.6781 C.ar    1  UNL1        0.0294
      5 C          66.5457   93.4795   14.4629 C.ar    1  UNL1       -0.0003
      6 C          66.9017   92.7398   13.2075 C.ar    1  UNL1       -0.0035
      7 C          68.1286   91.8779   13.1673 C.ar    1  UNL1       -0.0003
      8 C          68.9995   91.7556   14.3824 C.ar    1  UNL1        0.0294
      9 C          66.3911   93.8314   10.9059 C.ar    1  UNL1       -0.0035
     10 C          67.3146   93.4106    9.8012 C.ar    1  UNL1       -0.0003
     11 C          67.6749   94.3799    8.7147 C.ar    1  UNL1        0.0294
     12 C          67.1118   95.7701    8.7327 C.ar    1  UNL1        0.1401
     13 F          67.4722   96.7394    7.6461 F       1  UNL1       -0.2042
     14 C          66.1884   96.1909    9.8373 C.ar    1  UNL1        0.0294
     15 C          65.8280   95.2216   10.9239 C.ar    1  UNL1       -0.0003
     16 N          64.7996   92.0151   11.8638 N.3     1  UNL1       -0.2644
     17 C          64.0678   91.9492   10.5560 C.3     1  UNL1        0.0901
     18 C          62.8365   91.1021   10.4274 C.3     1  UNL1        0.0899
     19 N          62.3370   90.3211   11.6065 N.3     1  UNL1       -0.2665
     20 C          63.0687   90.3870   12.9143 C.3     1  UNL1        0.0899
     21 C          64.3000   91.2340   13.0429 C.3     1  UNL1        0.0901
     22 C          61.1057   89.4740   11.4780 C.3     1  UNL1        0.0989
     23 C          60.9585   88.5362   10.3165 C.2     1  UNL1       -0.0088
     24 C          61.9436   87.4219   10.1227 C.2     1  UNL1       -0.0032
     25 C          61.7964   86.4842    8.9612 C.ar    1  UNL1       -0.0003
     26 C          60.4817   86.3752    8.2473 C.ar    1  UNL1       -0.0000
     27 C          60.3345   85.4375    7.0858 C.ar    1  UNL1       -0.0000
     28 C          61.5019   84.6087    6.6384 C.ar    1  UNL1       -0.0000
     29 C          62.8165   84.7177    7.3523 C.ar    1  UNL1       -0.0000
     30 C          62.9638   85.6554    8.5138 C.ar    1  UNL1       -0.0000
@<TRIPOS>BOND
     1     2     3    1
     2     3     4   ar
     3     4     5   ar
     4     5     6   ar
     5     6     1    1
     6     1     9    1
     7     9    10   ar
     8    10    11   ar
     9    11    12   ar
    10    12    13    1
    11    12    14   ar
    12    14    15   ar
    13     1    16    1
    14    16    17    1
    15    17    18    1
    16    18    19    1
    17    19    22    1
    18    22    23    1
    19    23    24    2
    20    24    25    1
    21    25    26   ar
    22    26    27   ar
    23    27    28   ar
    24    28    29   ar
    25    29    30   ar
    26    19    20    1
    27    20    21    1
    28     6     7   ar
    29     7     8   ar
    30     8     3   ar
    31    15     9   ar
    32    21    16    1
    33    30    25   ar
@<TRIPOS>MOLECULE
*****
 30 33 0 0 0
SMALL
GASTEIGER

@<TRIPOS>ATOM
      1 C          65.9514   92.7058   11.9531 C.3     1  UNL1        0.1031
      2 F          67.1975   96.8548    7.8018 F       1  UNL1       -0.2042
      3 C          66.8860   95.8175    8.8396 C.ar    1  UNL1        0.1401
      4 C          65.9806   96.1533    9.9874 C.ar    1  UNL1        0.0294
      5 C          65.6691   95.1160   11.0252 C.ar    1  UNL1       -0.0003
      6 C          66.2630   93.7430   10.9153 C.ar    1  UNL1       -0.0035
      7 C          67.1683   93.4073    9.7674 C.ar    1  UNL1       -0.0003
      8 C          67.4798   94.4445    8.7296 C.ar    1  UNL1        0.0294
      9 C          66.7717   92.6290   13.2065 C.ar    1  UNL1       -0.0035
     10 C          66.2715   93.2636   14.4703 C.ar    1  UNL1       -0.0003
     11 C          67.0917   93.1868   15.7238 C.ar    1  UNL1        0.0294
     12 C          68.4123   92.4754   15.7136 C.ar    1  UNL1        0.1401
     13 F          69.2326   92.3987   16.9671 F       1  UNL1       -0.2042
     14 C          68.9125   91.8408   14.4499 C.ar    1  UNL1        0.0294
     15 C          68.0923   91.9176   13.1963 C.ar    1  UNL1       -0.0003
     16 N          64.8197   91.7453   11.7374 N.3     1  UNL1       -0.2644
     17 C          64.0851   91.7332   10.4297 C.3     1  UNL1        0.0901
     18 C          62.9532   90.7727   10.2141 C.3     1  UNL1        0.0899
     19 N          62.5560   89.8244   11.3062 N.3     1  UNL1       -0.2665
     20 C          63.2906   89.8364   12.6140 C.3     1  UNL1        0.0899
     21 C          64.4224   90.7969   12.8296 C.3     1  UNL1        0.0901
     22 C          61.4242   88.8638   11.0906 C.3     1  UNL1        0.0989
     23 C          61.7107   87.4218   10.7930 C.2     1  UNL1       -0.0088
     24 C          62.5037   86.5988   11.7644 C.2     1  UNL1       -0.0032
     25 C          62.7902   85.1568   11.4668 C.ar    1  UNL1       -0.0003
     26 C          62.5662   84.1144   12.5218 C.ar    1  UNL1       -0.0000
     27 C          62.8526   82.6723   12.2242 C.ar    1  UNL1       -0.0000
     28 C          63.3632   82.2727   10.8716 C.ar    1  UNL1       -0.0000
     29 C          63.5872   83.3151    9.8166 C.ar    1  UNL1       -0.0000
     30 C          63.3007   84.7572   10.1142 C.ar    1  UNL1       -0.0000
@<TRIPOS>BOND
     1     2     3    1
     2     3     4   ar
     3     4     5   ar
     4     5     6   ar
     5     6     1    1
     6     1     9    1
     7     9    10   ar
     8    10    11   ar
     9    11    12   ar
    10    12    13    1
    11    12    14   ar
    12    14    15   ar
    13     1    16    1
    14    16    17    1
    15    17    18    1
    16    18    19    1
    17    19    22    1
    18    22    23    1
    19    23    24    2
    20    24    25    1
    21    25    26   ar
    22    26    27   ar
    23    27    28   ar
    24    28    29   ar
    25    29    30   ar
    26    19    20    1
    27    20    21    1
    28     6     7   ar
    29     7     8   ar
    30     8     3   ar
    31    15     9   ar
    32    21    16    1
    33    30    25   ar
@<TRIPOS>MOLECULE
*****
 30 33 0 0 0
SMALL
GASTEIGER

@<TRIPOS>ATOM
      1 C          65.8983   92.6762   11.9843 C.3     1  UNL1        0.1031
      2 F          69.0717   92.1847   17.0526 F       1  UNL1       -0.2042
      3 C          68.2784   92.3076   15.7855 C.ar    1  UNL1        0.1401
      4 C          66.9180   92.9389   15.8107 C.ar    1  UNL1        0.0294
      5 C          66.1246   93.0618   14.5436 C.ar    1  UNL1       -0.0003
      6 C          66.6916   92.5533   13.2514 C.ar    1  UNL1       -0.0035
      7 C          68.0520   91.9220   13.2262 C.ar    1  UNL1       -0.0003
      8 C          68.8454   91.7991   14.4933 C.ar    1  UNL1        0.0294
      9 C          66.2973   93.6804   10.9440 C.ar    1  UNL1       -0.0035
     10 C          67.2407   93.2881    9.8457 C.ar    1  UNL1       -0.0003
     11 C          67.6397   94.2923    8.8054 C.ar    1  UNL1        0.0294
     12 C          67.0953   95.6888    8.8632 C.ar    1  UNL1        0.1401
     13 F          67.4944   96.6930    7.8228 F       1  UNL1       -0.2042
     14 C          66.1520   96.0812    9.9614 C.ar    1  UNL1        0.0294
     15 C          65.7529   95.0769   11.0018 C.ar    1  UNL1       -0.0003
     16 N          64.7059   91.7948   11.7575 N.3     1  UNL1       -0.2644
     17 C          64.1791   90.9437   12.8747 C.3     1  UNL1        0.0901
     18 C          62.9866   90.0624   12.6479 C.3     1  UNL1        0.0899
     19 N          62.3211   90.0322   11.3040 N.3     1  UNL1       -0.2665
     20 C          62.8479   90.8833   10.1868 C.3     1  UNL1        0.0899
     21 C          64.0403   91.7646   10.4136 C.3     1  UNL1        0.0901
     22 C          61.1287   89.1508   11.0771 C.3     1  UNL1        0.0989
     23 C          61.2873   87.6592   11.0794 C.2     1  UNL1       -0.0088
     24 C          62.5973   87.0449   11.4749 C.2     1  UNL1       -0.0032
     25 C          62.7559   85.5533   11.4771 C.ar    1  UNL1       -0.0003
     26 C          63.1023   84.8340   10.2072 C.ar    1  UNL1       -0.0000
     27 C          63.2609   83.3424   10.2094 C.ar    1  UNL1       -0.0000
     28 C          63.0731   82.5701   11.4815 C.ar    1  UNL1       -0.0000
     29 C          62.7266   83.2894   12.7514 C.ar    1  UNL1       -0.0000
     30 C          62.5680   84.7810   12.7491 C.ar    1  UNL1       -0.0000
@<TRIPOS>BOND
     1     2     3    1
     2     3     4   ar
     3     4     5   ar
     4     5     6   ar
     5     6     1    1
     6     1     9    1
     7     9    10   ar
     8    10    11   ar
     9    11    12   ar
    10    12    13    1
    11    12    14   ar
    12    14    15   ar
    13     1    16    1
    14    16    17    1
    15    17    18    1
    16    18    19    1
    17    19    22    1
    18    22    23    1
    19    23    24    2
    20    24    25    1
    21    25    26   ar
    22    26    27   ar
    23    27    28   ar
    24    28    29   ar
    25    29    30   ar
    26    19    20    1
    27    20    21    1
    28     6     7   ar
    29     7     8   ar
    30     8     3   ar
    31    15     9   ar
    32    21    16    1
    33    30    25   ar
@<TRIPOS>MOLECULE
*****
 30 33 0 0 0
SMALL
GASTEIGER

@<TRIPOS>ATOM
      1 C          62.6394   86.2070   11.8020 C.3     1  UNL1        0.1031
      2 F          63.9245   80.8035   14.0717 F       1  UNL1       -0.2042
      3 C          63.6032   82.1544   13.5043 C.ar    1  UNL1        0.1401
      4 C          62.6424   83.0585   14.2180 C.ar    1  UNL1        0.0294
      5 C          62.3212   84.4093   13.6506 C.ar    1  UNL1       -0.0003
      6 C          62.9607   84.8561   12.3695 C.ar    1  UNL1       -0.0035
      7 C          63.9215   83.9520   11.6557 C.ar    1  UNL1       -0.0003
      8 C          64.2427   82.6011   12.2231 C.ar    1  UNL1        0.0294
      9 C          61.7648   86.3222   10.5889 C.ar    1  UNL1       -0.0035
     10 C          60.4626   87.0623   10.6707 C.ar    1  UNL1       -0.0003
     11 C          59.5880   87.1776    9.4576 C.ar    1  UNL1        0.0294
     12 C          60.0155   86.5528    8.1626 C.ar    1  UNL1        0.1401
     13 F          59.1408   86.6681    6.9495 F       1  UNL1       -0.2042
     14 C          61.3176   85.8127    8.0808 C.ar    1  UNL1        0.0294
     15 C          62.1923   85.6974    9.2940 C.ar    1  UNL1       -0.0003
     16 N          63.1928   87.4426   12.4478 N.3     1  UNL1       -0.2644
     17 C          62.9693   88.7840   11.8147 C.3     1  UNL1        0.0901
     18 C          63.5227   90.0196   12.4605 C.3     1  UNL1        0.0899
     19 N          64.2996   89.9139   13.7393 N.3     1  UNL1       -0.2665
     20 C          64.5230   88.5725   14.3723 C.3     1  UNL1        0.0899
     21 C          63.9697   87.3369   13.7266 C.3     1  UNL1        0.0901
     22 C          64.8530   91.1495   14.3851 C.3     1  UNL1        0.0989
     23 C          65.3309   92.2898   13.5358 C.2     1  UNL1       -0.0088
     24 C          65.9997   92.0169   12.2212 C.2     1  UNL1       -0.0032
     25 C          66.4776   93.1572   11.3718 C.ar    1  UNL1       -0.0003
     26 C          66.1308   94.5678   11.7459 C.ar    1  UNL1       -0.0000
     27 C          66.6088   95.7081   10.8966 C.ar    1  UNL1       -0.0000
     28 C          67.4335   95.4378    9.6732 C.ar    1  UNL1       -0.0000
     29 C          67.7802   94.0272    9.2991 C.ar    1  UNL1       -0.0000
     30 C          67.3023   92.8869   10.1484 C.ar    1  UNL1       -0.0000
@<TRIPOS>BOND
     1     2     3    1
     2     3     4   ar
     3     4     5   ar
     4     5     6   ar
     5     6     1    1
     6     1     9    1
     7     9    10   ar
     8    10    11   ar
     9    11    12   ar
    10    12    13    1
    11    12    14   ar
    12    14    15   ar
    13     1    16    1
    14    16    17    1
    15    17    18    1
    16    18    19    1
    17    19    22    1
    18    22    23    1
    19    23    24    2
    20    24    25    1
    21    25    26   ar
    22    26    27   ar
    23    27    28   ar
    24    28    29   ar
    25    29    30   ar
    26    19    20    1
    27    20    21    1
    28     6     7   ar
    29     7     8   ar
    30     8     3   ar
    31    15     9   ar
    32    21    16    1
    33    30    25   ar
@<TRIPOS>MOLECULE
*****
 30 33 0 0 0
SMALL
GASTEIGER

@<TRIPOS>ATOM
      1 C          62.6305   86.2029   11.7932 C.3     1  UNL1        0.1031
      2 F          59.1276   86.6496    6.9425 F       1  UNL1       -0.2042
      3 C          60.0033   86.5379    8.1552 C.ar    1  UNL1        0.1401
      4 C          59.5776   87.1677    9.4483 C.ar    1  UNL1        0.0294
      5 C          60.4534   87.0560   10.6609 C.ar    1  UNL1       -0.0003
      6 C          61.7548   86.3145   10.5806 C.ar    1  UNL1       -0.0035
      7 C          62.1804   85.6847    9.2875 C.ar    1  UNL1       -0.0003
      8 C          61.3047   85.7964    8.0748 C.ar    1  UNL1        0.0294
      9 C          62.9533   84.8536   12.3636 C.ar    1  UNL1       -0.0035
     10 C          63.9140   83.9484   11.6509 C.ar    1  UNL1       -0.0003
     11 C          64.2368   82.5992   12.2212 C.ar    1  UNL1        0.0294
     12 C          63.5990   82.1551   13.5042 C.ar    1  UNL1        0.1401
     13 F          63.9219   80.8057   14.0745 F       1  UNL1       -0.2042
     14 C          62.6384   83.0602   14.2168 C.ar    1  UNL1        0.0294
     15 C          62.3155   84.4095   13.6465 C.ar    1  UNL1       -0.0003
     16 N          63.1834   87.4404   12.4356 N.3     1  UNL1       -0.2644
     17 C          62.9547   88.7806   11.8019 C.3     1  UNL1        0.0901
     18 C          63.5076   90.0182   12.4444 C.3     1  UNL1        0.0899
     19 N          64.2893   89.9156   13.7205 N.3     1  UNL1       -0.2665
     20 C          64.5180   88.5754   14.3542 C.3     1  UNL1        0.0899
     21 C          63.9651   87.3378   13.7118 C.3     1  UNL1        0.0901
     22 C          64.8422   91.1532   14.3629 C.3     1  UNL1        0.0989
     23 C          65.3018   92.2991   13.5111 C.2     1  UNL1       -0.0088
     24 C          66.0321   92.0341   12.2280 C.2     1  UNL1       -0.0032
     25 C          66.4917   93.1800   11.3761 C.ar    1  UNL1       -0.0003
     26 C          66.1503   94.5879   11.7652 C.ar    1  UNL1       -0.0000
     27 C          66.6098   95.7338   10.9133 C.ar    1  UNL1       -0.0000
     28 C          67.4107   95.4719    9.6724 C.ar    1  UNL1       -0.0000
     29 C          67.7521   94.0640    9.2833 C.ar    1  UNL1       -0.0000
     30 C          67.2926   92.9181   10.1352 C.ar    1  UNL1       -0.0000
@<TRIPOS>BOND
     1     2     3    1
     2     3     4   ar
     3     4     5   ar
     4     5     6   ar
     5     6     1    1
     6     1     9    1
     7     9    10   ar
     8    10    11   ar
     9    11    12   ar
    10    12    13    1
    11    12    14   ar
    12    14    15   ar
    13     1    16    1
    14    16    17    1
    15    17    18    1
    16    18    19    1
    17    19    22    1
    18    22    23    1
    19    23    24    2
    20    24    25    1
    21    25    26   ar
    22    26    27   ar
    23    27    28   ar
    24    28    29   ar
    25    29    30   ar
    26    19    20    1
    27    20    21    1
    28     6     7   ar
    29     7     8   ar
    30     8     3   ar
    31    15     9   ar
    32    21    16    1
    33    30    25   ar
