@<TRIPOS>MOLECULE
*****
 32 36 0 0 0
SMALL
GASTEIGER

@<TRIPOS>ATOM
      1 C          61.0058   88.8467   10.5941 C.ar    1  UNL1        0.2490
      2 N          60.0976   89.5825    9.6541 N.ar    1  UNL1       -0.1863
      3 C          59.7123   88.9622    8.3439 C.ar    1  UNL1        0.2225
      4 N          60.2354   87.6060    7.9736 N.ar    1  UNL1       -0.1420
      5 N          61.1437   86.8702    8.9135 N.ar    1  UNL1       -0.2193
      6 C          61.8106   85.5298    8.8214 C.ar    1  UNL1        0.1371
      7 C          62.6080   85.3217   10.0747 C.ar    1  UNL1        0.1552
      8 C          62.4339   86.5335   10.9414 C.ar    1  UNL1        0.0359
      9 C          63.0557   86.7503   12.2891 C.3     1  UNL1        0.0360
     10 C          61.5289   87.4906   10.2237 C.ar    1  UNL1        0.1353
     11 O          61.3911   89.4670   11.9043 O.3     1  UNL1       -0.4328
     12 C          67.7063   93.0853   14.8453 C.3     1  UNL1        0.0521
     13 C          66.5755   92.5218   14.0367 C.2     1  UNL1        0.0591
     14 C          65.5011   91.6053   14.5424 C.2     1  UNL1        0.0182
     15 C          64.5822   91.2929   13.3987 C.2     1  UNL1        0.0455
     16 C          63.3497   90.4431   13.3048 C.2     1  UNL1        0.1752
     17 F          62.8432   89.7197   14.5173 F       1  UNL1       -0.2009
     18 C          62.6236   90.3168   11.9983 C.2     1  UNL1        0.1706
     19 C          63.1300   91.0402   10.7858 C.2     1  UNL1        0.0201
     20 C          64.3626   91.8899   10.8798 C.3     1  UNL1        0.0751
     21 C          65.0886   92.0163   12.1862 C.2     1  UNL1        0.0653
     22 N          66.3206   92.7757   12.5805 N.2     1  UNL1       -0.2536
     23 O          63.4345   84.1138   10.4036 O.3     1  UNL1       -0.4742
     24 C          62.9944   83.1769   11.4891 C.3     1  UNL1        0.2055
     25 C          63.8358   83.0062   12.7191 C.3     1  UNL1        0.0474
     26 C          63.5760   83.8539   13.9291 C.3     1  UNL1        0.0065
     27 C          62.2468   83.7861   14.6210 C.3     1  UNL1        0.0175
     28 C          61.9871   84.6338   15.8310 C.3     1  UNL1        0.0721
     29 N          63.0565   85.5493   16.3490 N.3     1  UNL1       -0.2715
     30 C          62.7967   86.3970   17.5589 C.3     1  UNL1        0.0896
     31 C          64.3856   85.6171   15.6570 C.3     1  UNL1        0.0721
     32 C          64.6454   84.7694   14.4471 C.3     1  UNL1        0.0175
@<TRIPOS>BOND
     1    12    13    1
     2    13    14    2
     3    14    15    1
     4    15    16    2
     5    16    17    1
     6    16    18    1
     7    18    11    1
     8    11     1    1
     9     1     2   ar
    10     2     3   ar
    11     3     4   ar
    12     4     5   ar
    13     5     6   ar
    14     6     7   ar
    15     7    23    1
    16    23    24    1
    17    24    25    1
    18    25    26    1
    19    26    27    1
    20    27    28    1
    21    28    29    1
    22    29    30    1
    23    29    31    1
    24    31    32    1
    25     7     8   ar
    26     8     9    1
    27     8    10   ar
    28    18    19    2
    29    19    20    1
    30    20    21    1
    31    21    22    2
    32    22    13    1
    33    21    15    1
    34    10     1   ar
    35    10     5   ar
    36    32    26    1
@<TRIPOS>MOLECULE
*****
 32 36 0 0 0
SMALL
GASTEIGER

@<TRIPOS>ATOM
      1 C          62.6215   86.8857   11.8829 C.ar    1  UNL1        0.2490
      2 N          61.8084   86.2808   10.7771 N.ar    1  UNL1       -0.1863
      3 C          61.1876   87.1621    9.7341 C.ar    1  UNL1        0.2225
      4 N          61.3798   88.6484    9.7969 N.ar    1  UNL1       -0.1420
      5 N          62.1929   89.2533   10.9027 N.ar    1  UNL1       -0.2193
      6 C          62.5531   90.6740   11.2221 C.ar    1  UNL1        0.1371
      7 C          63.3966   90.6707   12.4625 C.ar    1  UNL1        0.1552
      8 C          63.5577   89.2480   12.9097 C.ar    1  UNL1        0.0359
      9 C          64.3275   88.7829   14.1101 C.3     1  UNL1        0.0360
     10 C          62.8138   88.3720   11.9457 C.ar    1  UNL1        0.1353
     11 O          63.2424   86.0044   12.9259 O.3     1  UNL1       -0.4328
     12 C          62.9011   78.6152   10.2979 C.3     1  UNL1        0.0521
     13 C          62.8687   79.9147   11.0465 C.2     1  UNL1        0.0591
     14 C          63.2604   81.2561   10.5016 C.2     1  UNL1        0.0182
     15 C          63.0727   82.2714   11.5898 C.2     1  UNL1        0.0455
     16 C          63.2985   83.7537   11.6293 C.2     1  UNL1        0.1752
     17 F          63.8062   84.4678   10.4118 F       1  UNL1       -0.2009
     18 C          63.0166   84.5221   12.8864 C.2     1  UNL1        0.1706
     19 C          62.5089   83.8080   14.1039 C.2     1  UNL1        0.0201
     20 C          62.2831   82.3256   14.0643 C.3     1  UNL1        0.0751
     21 C          62.5650   81.5573   12.8073 C.2     1  UNL1        0.0653
     22 N          62.4389   80.1008   12.4715 N.2     1  UNL1       -0.2536
     23 O          63.9770   91.8781   13.1372 O.3     1  UNL1       -0.4742
     24 C          65.4594   91.9834   13.3409 C.3     1  UNL1        0.2055
     25 C          66.3846   91.9230   12.1617 C.3     1  UNL1        0.0474
     26 C          66.6116   93.1458   11.3230 C.3     1  UNL1        0.0065
     27 C          67.2663   93.0225    9.9791 C.3     1  UNL1        0.0175
     28 C          67.4933   94.2453    9.1404 C.3     1  UNL1        0.0721
     29 N          67.0655   95.5913    9.6457 N.3     1  UNL1       -0.2715
     30 C          67.2925   96.8140    8.8071 C.3     1  UNL1        0.0896
     31 C          66.4108   95.7145   10.9897 C.3     1  UNL1        0.0721
     32 C          66.1838   94.4918   11.8283 C.3     1  UNL1        0.0175
@<TRIPOS>BOND
     1    12    13    1
     2    13    14    2
     3    14    15    1
     4    15    16    2
     5    16    17    1
     6    16    18    1
     7    18    11    1
     8    11     1    1
     9     1     2   ar
    10     2     3   ar
    11     3     4   ar
    12     4     5   ar
    13     5     6   ar
    14     6     7   ar
    15     7    23    1
    16    23    24    1
    17    24    25    1
    18    25    26    1
    19    26    27    1
    20    27    28    1
    21    28    29    1
    22    29    30    1
    23    29    31    1
    24    31    32    1
    25     7     8   ar
    26     8     9    1
    27     8    10   ar
    28    18    19    2
    29    19    20    1
    30    20    21    1
    31    21    22    2
    32    22    13    1
    33    21    15    1
    34    10     1   ar
    35    10     5   ar
    36    32    26    1
@<TRIPOS>MOLECULE
*****
 32 36 0 0 0
SMALL
GASTEIGER

@<TRIPOS>ATOM
      1 C          62.0138   88.0853   11.7071 C.ar    1  UNL1        0.2490
      2 N          62.8027   86.9189   12.2237 N.ar    1  UNL1       -0.1863
      3 C          62.8248   85.6298   11.4570 C.ar    1  UNL1        0.2225
      4 N          62.0579   85.5072   10.1738 N.ar    1  UNL1       -0.1420
      5 N          61.2689   86.6736    9.6572 N.ar    1  UNL1       -0.2193
      6 C          60.4214   86.8485    8.4320 C.ar    1  UNL1        0.1371
      7 C          59.8755   88.2456    8.4414 C.ar    1  UNL1        0.1552
      8 C          60.3857   88.9342    9.6725 C.ar    1  UNL1        0.0359
      9 C          60.0871   90.3464   10.0805 C.3     1  UNL1        0.0360
     10 C          61.2469   87.9627   10.4239 C.ar    1  UNL1        0.1353
     11 O          61.9917   89.3744   12.4738 O.3     1  UNL1       -0.4328
     12 C          68.5703   92.8375   14.9942 C.3     1  UNL1        0.0521
     13 C          67.3546   92.3329   14.2748 C.2     1  UNL1        0.0591
     14 C          66.3701   91.3317   14.8024 C.2     1  UNL1        0.0182
     15 C          65.3170   91.1209   13.7553 C.2     1  UNL1        0.0455
     16 C          64.0974   90.2484   13.7197 C.2     1  UNL1        0.1752
     17 F          63.7637   89.3775   14.8945 F       1  UNL1       -0.2009
     18 C          63.2113   90.2469   12.5093 C.2     1  UNL1        0.1706
     19 C          63.5450   91.1178   11.3345 C.2     1  UNL1        0.0201
     20 C          64.7647   91.9903   11.3701 C.3     1  UNL1        0.0751
     21 C          65.6506   91.9918   12.5805 C.2     1  UNL1        0.0653
     22 N          66.9099   92.7408   12.9016 N.2     1  UNL1       -0.2536
     23 O          58.9772   88.8482    7.4022 O.3     1  UNL1       -0.4742
     24 C          59.5636   89.4302    6.1503 C.3     1  UNL1        0.2055
     25 C          59.1366   90.7905    5.6841 C.3     1  UNL1        0.0474
     26 C          59.9042   91.4868    4.5996 C.3     1  UNL1        0.0065
     27 C          61.3603   91.1867    4.4002 C.3     1  UNL1        0.0175
     28 C          62.1279   91.8830    3.3157 C.3     1  UNL1        0.0721
     29 N          61.4393   92.8793    2.4306 N.3     1  UNL1       -0.2715
     30 C          62.2069   93.5756    1.3462 C.3     1  UNL1        0.0896
     31 C          59.9832   93.1793    2.6300 C.3     1  UNL1        0.0721
     32 C          59.2157   92.4830    3.7145 C.3     1  UNL1        0.0175
@<TRIPOS>BOND
     1    12    13    1
     2    13    14    2
     3    14    15    1
     4    15    16    2
     5    16    17    1
     6    16    18    1
     7    18    11    1
     8    11     1    1
     9     1     2   ar
    10     2     3   ar
    11     3     4   ar
    12     4     5   ar
    13     5     6   ar
    14     6     7   ar
    15     7    23    1
    16    23    24    1
    17    24    25    1
    18    25    26    1
    19    26    27    1
    20    27    28    1
    21    28    29    1
    22    29    30    1
    23    29    31    1
    24    31    32    1
    25     7     8   ar
    26     8     9    1
    27     8    10   ar
    28    18    19    2
    29    19    20    1
    30    20    21    1
    31    21    22    2
    32    22    13    1
    33    21    15    1
    34    10     1   ar
    35    10     5   ar
    36    32    26    1
@<TRIPOS>MOLECULE
*****
 32 36 0 0 0
SMALL
GASTEIGER

@<TRIPOS>ATOM
      1 C          60.8030   88.4455   10.5244 C.ar    1  UNL1        0.2490
      2 N          59.8924   89.1250    9.5450 N.ar    1  UNL1       -0.1863
      3 C          59.6778   88.5317    8.1842 C.ar    1  UNL1        0.2225
      4 N          60.3737   87.2589    7.8027 N.ar    1  UNL1       -0.1420
      5 N          61.2842   86.5794    8.7820 N.ar    1  UNL1       -0.2193
      6 C          62.1000   85.3240    8.6898 C.ar    1  UNL1        0.1371
      7 C          62.8188   85.1414    9.9936 C.ar    1  UNL1        0.1552
      8 C          62.4473   86.2840   10.8917 C.ar    1  UNL1        0.0359
      9 C          62.9380   86.4999   12.2926 C.3     1  UNL1        0.0360
     10 C          61.4988   87.1727   10.1429 C.ar    1  UNL1        0.1353
     11 O          61.0176   89.0388   11.8852 O.3     1  UNL1       -0.4328
     12 C          66.9574   94.0421   10.7410 C.3     1  UNL1        0.0521
     13 C          65.9181   93.0779   11.2311 C.2     1  UNL1        0.0591
     14 C          64.8211   92.4703   10.4080 C.2     1  UNL1        0.0182
     15 C          64.0183   91.5690   11.2986 C.2     1  UNL1        0.0455
     16 C          62.8178   90.7088   11.0363 C.2     1  UNL1        0.1752
     17 F          62.2170   90.6582    9.6628 F       1  UNL1       -0.2009
     18 C          62.2181   89.8990   12.1475 C.2     1  UNL1        0.1706
     19 C          62.8188   89.9496   13.5210 C.2     1  UNL1        0.0201
     20 C          64.0194   90.8099   13.7833 C.3     1  UNL1        0.0751
     21 C          64.6191   91.6196   12.6721 C.2     1  UNL1        0.0653
     22 N          65.7932   92.5521   12.6304 N.2     1  UNL1       -0.2536
     23 O          63.7463   84.0142   10.3388 O.3     1  UNL1       -0.4742
     24 C          63.2876   82.9196   11.2561 C.3     1  UNL1        0.2055
     25 C          63.9991   82.6823   12.5551 C.3     1  UNL1        0.0474
     26 C          63.7202   83.5652   13.7353 C.3     1  UNL1        0.0065
     27 C          64.7774   84.5039   14.2362 C.3     1  UNL1        0.0175
     28 C          64.4985   85.3868   15.4163 C.3     1  UNL1        0.0721
     29 N          63.1622   85.3309   16.0955 N.3     1  UNL1       -0.2715
     30 C          62.8832   86.2138   17.2756 C.3     1  UNL1        0.0896
     31 C          62.1049   84.3921   15.5946 C.3     1  UNL1        0.0721
     32 C          62.3839   83.5093   14.4145 C.3     1  UNL1        0.0175
@<TRIPOS>BOND
     1    12    13    1
     2    13    14    2
     3    14    15    1
     4    15    16    2
     5    16    17    1
     6    16    18    1
     7    18    11    1
     8    11     1    1
     9     1     2   ar
    10     2     3   ar
    11     3     4   ar
    12     4     5   ar
    13     5     6   ar
    14     6     7   ar
    15     7    23    1
    16    23    24    1
    17    24    25    1
    18    25    26    1
    19    26    27    1
    20    27    28    1
    21    28    29    1
    22    29    30    1
    23    29    31    1
    24    31    32    1
    25     7     8   ar
    26     8     9    1
    27     8    10   ar
    28    18    19    2
    29    19    20    1
    30    20    21    1
    31    21    22    2
    32    22    13    1
    33    21    15    1
    34    10     1   ar
    35    10     5   ar
    36    32    26    1
@<TRIPOS>MOLECULE
*****
 32 36 0 0 0
SMALL
GASTEIGER

@<TRIPOS>ATOM
      1 C          64.1263   91.4614   13.6304 C.ar    1  UNL1        0.2490
      2 N          65.4724   92.1214   13.6765 N.ar    1  UNL1       -0.1863
      3 C          66.1616   92.5094   12.4020 C.ar    1  UNL1        0.2225
      4 N          65.5046   92.2374   11.0813 N.ar    1  UNL1       -0.1420
      5 N          64.1585   91.5774   11.0351 N.ar    1  UNL1       -0.2193
      6 C          63.2715   91.1854    9.8907 C.ar    1  UNL1        0.1371
      7 C          62.0341   90.5552   10.4579 C.ar    1  UNL1        0.1552
      8 C          62.1564   90.5576   11.9529 C.ar    1  UNL1        0.0359
      9 C          61.1436   90.0223   12.9212 C.3     1  UNL1        0.0360
     10 C          63.4693   91.1894   12.3096 C.ar    1  UNL1        0.1353
     11 O          63.4371   91.0734   14.9049 O.3     1  UNL1       -0.4328
     12 C          64.5656   83.3051   14.9553 C.3     1  UNL1        0.0521
     13 C          64.2509   84.7488   15.2130 C.2     1  UNL1        0.0591
     14 C          64.4610   85.8820   14.2529 C.2     1  UNL1        0.0182
     15 C          64.0107   87.1465   14.9225 C.2     1  UNL1        0.0455
     16 C          63.9823   88.5726   14.4586 C.2     1  UNL1        0.1752
     17 F          64.4707   88.9243   13.0847 F       1  UNL1       -0.2009
     18 C          63.4654   89.6472   15.3688 C.2     1  UNL1        0.1706
     19 C          62.9770   89.2955   16.7427 C.2     1  UNL1        0.0201
     20 C          63.0054   87.8693   17.2065 C.3     1  UNL1        0.0751
     21 C          63.5222   86.7948   16.2964 C.2     1  UNL1        0.0653
     22 N          63.6707   85.3130   16.4759 N.2     1  UNL1       -0.2536
     23 O          60.8776   90.0171    9.6687 O.3     1  UNL1       -0.4742
     24 C          60.8627   88.5778    9.2465 C.3     1  UNL1        0.2055
     25 C          60.6978   87.4967   10.2732 C.3     1  UNL1        0.0474
     26 C          61.6203   86.3138   10.2715 C.3     1  UNL1        0.0065
     27 C          61.8541   85.5432   11.5369 C.3     1  UNL1        0.0175
     28 C          62.7766   84.3603   11.5352 C.3     1  UNL1        0.0721
     29 N          63.4652   83.9481   10.2680 N.3     1  UNL1       -0.2715
     30 C          64.3876   82.7653   10.2662 C.3     1  UNL1        0.0896
     31 C          63.2313   84.7188    9.0024 C.3     1  UNL1        0.0721
     32 C          62.3089   85.9016    9.0042 C.3     1  UNL1        0.0175
@<TRIPOS>BOND
     1    12    13    1
     2    13    14    2
     3    14    15    1
     4    15    16    2
     5    16    17    1
     6    16    18    1
     7    18    11    1
     8    11     1    1
     9     1     2   ar
    10     2     3   ar
    11     3     4   ar
    12     4     5   ar
    13     5     6   ar
    14     6     7   ar
    15     7    23    1
    16    23    24    1
    17    24    25    1
    18    25    26    1
    19    26    27    1
    20    27    28    1
    21    28    29    1
    22    29    30    1
    23    29    31    1
    24    31    32    1
    25     7     8   ar
    26     8     9    1
    27     8    10   ar
    28    18    19    2
    29    19    20    1
    30    20    21    1
    31    21    22    2
    32    22    13    1
    33    21    15    1
    34    10     1   ar
    35    10     5   ar
    36    32    26    1
@<TRIPOS>MOLECULE
*****
 32 36 0 0 0
SMALL
GASTEIGER

@<TRIPOS>ATOM
      1 C          61.9840   88.0864   11.7056 C.ar    1  UNL1        0.2490
      2 N          62.8093   86.9469   12.2255 N.ar    1  UNL1       -0.1863
      3 C          62.8671   85.6548   11.4659 C.ar    1  UNL1        0.2225
      4 N          62.0996   85.5021   10.1863 N.ar    1  UNL1       -0.1420
      5 N          61.2743   86.6416    9.6663 N.ar    1  UNL1       -0.2193
      6 C          60.4175   86.7842    8.4433 C.ar    1  UNL1        0.1371
      7 C          59.8301   88.1644    8.4471 C.ar    1  UNL1        0.1552
      8 C          60.3239   88.8748    9.6724 C.ar    1  UNL1        0.0359
      9 C          59.9848   90.2798   10.0739 C.3     1  UNL1        0.0360
     10 C          61.2165   87.9337   10.4259 C.ar    1  UNL1        0.1353
     11 O          61.9262   89.3785   12.4652 O.3     1  UNL1       -0.4328
     12 C          67.4101   94.5364   10.2414 C.3     1  UNL1        0.0521
     13 C          66.5034   93.5511   10.9173 C.2     1  UNL1        0.0591
     14 C          65.3022   92.8940   10.3047 C.2     1  UNL1        0.0182
     15 C          64.6950   91.9866   11.3333 C.2     1  UNL1        0.0455
     16 C          63.4967   91.0852   11.2945 C.2     1  UNL1        0.1752
     17 F          62.6707   90.9890   10.0461 F       1  UNL1       -0.2009
     18 C          63.1244   90.2800   12.5040 C.2     1  UNL1        0.1706
     19 C          63.9504   90.3762   13.7524 C.2     1  UNL1        0.0201
     20 C          65.1487   91.2777   13.7912 C.3     1  UNL1        0.0751
     21 C          65.5210   92.0829   12.5817 C.2     1  UNL1        0.0653
     22 N          66.6386   93.0498   12.3246 N.2     1  UNL1       -0.2536
     23 O          58.9104   88.7341    7.4081 O.3     1  UNL1       -0.4742
     24 C          59.4751   89.3358    6.1555 C.3     1  UNL1        0.2055
     25 C          59.1034   90.7347    5.7618 C.3     1  UNL1        0.0474
     26 C          59.8608   91.4333    4.6716 C.3     1  UNL1        0.0065
     27 C          59.1566   92.4082    3.7752 C.3     1  UNL1        0.0175
     28 C          59.9140   93.1069    2.6850 C.3     1  UNL1        0.0721
     29 N          61.3755   92.8305    2.4913 N.3     1  UNL1       -0.2715
     30 C          62.1328   93.5290    1.4012 C.3     1  UNL1        0.0896
     31 C          62.0797   91.8555    3.3878 C.3     1  UNL1        0.0721
     32 C          61.3223   91.1569    4.4779 C.3     1  UNL1        0.0175
@<TRIPOS>BOND
     1    12    13    1
     2    13    14    2
     3    14    15    1
     4    15    16    2
     5    16    17    1
     6    16    18    1
     7    18    11    1
     8    11     1    1
     9     1     2   ar
    10     2     3   ar
    11     3     4   ar
    12     4     5   ar
    13     5     6   ar
    14     6     7   ar
    15     7    23    1
    16    23    24    1
    17    24    25    1
    18    25    26    1
    19    26    27    1
    20    27    28    1
    21    28    29    1
    22    29    30    1
    23    29    31    1
    24    31    32    1
    25     7     8   ar
    26     8     9    1
    27     8    10   ar
    28    18    19    2
    29    19    20    1
    30    20    21    1
    31    21    22    2
    32    22    13    1
    33    21    15    1
    34    10     1   ar
    35    10     5   ar
    36    32    26    1
@<TRIPOS>MOLECULE
*****
 32 36 0 0 0
SMALL
GASTEIGER

@<TRIPOS>ATOM
      1 C          61.6298   89.2863   11.6878 C.ar    1  UNL1        0.2490
      2 N          60.7967   90.3723   11.0742 N.ar    1  UNL1       -0.1863
      3 C          60.0825   90.1280    9.7780 C.ar    1  UNL1        0.2225
      4 N          60.2012   88.7977    9.0954 N.ar    1  UNL1       -0.1420
      5 N          61.0343   87.7116    9.7089 N.ar    1  UNL1       -0.2193
      6 C          61.3362   86.3093    9.2705 C.ar    1  UNL1        0.1371
      7 C          62.2371   85.6868   10.2957 C.ar    1  UNL1        0.1552
      8 C          62.4919   86.7045   11.3677 C.ar    1  UNL1        0.0359
      9 C          63.3410   86.5058   12.5882 C.3     1  UNL1        0.0360
     10 C          61.7485   87.9559   11.0051 C.ar    1  UNL1        0.1353
     11 O          62.3440   89.5306   12.9840 O.3     1  UNL1       -0.4328
     12 C          68.4928   93.6010   15.6760 C.3     1  UNL1        0.0521
     13 C          67.3725   92.9584   14.9132 C.2     1  UNL1        0.0591
     14 C          66.3955   91.9584   15.4569 C.2     1  UNL1        0.0182
     15 C          65.4516   91.5848   14.3526 C.2     1  UNL1        0.0455
     16 C          64.2845   90.6437   14.3051 C.2     1  UNL1        0.1752
     17 F          63.8909   89.8747   15.5313 F       1  UNL1       -0.2009
     18 C          63.5111   90.4717   13.0314 C.2     1  UNL1        0.1706
     19 C          63.9047   91.2407   11.8052 C.2     1  UNL1        0.0201
     20 C          65.0719   92.1819   11.8527 C.3     1  UNL1        0.0751
     21 C          65.8452   92.3539   13.1264 C.2     1  UNL1        0.0653
     22 N          67.0324   93.2028   13.4729 N.2     1  UNL1       -0.2536
     23 O          62.7866   84.2917   10.2558 O.3     1  UNL1       -0.4742
     24 C          64.2267   84.0429   10.5935 C.3     1  UNL1        0.2055
     25 C          64.5847   83.0995   11.7034 C.3     1  UNL1        0.0474
     26 C          63.5108   82.3121   12.3940 C.3     1  UNL1        0.0065
     27 C          62.7610   82.9152   13.5447 C.3     1  UNL1        0.0175
     28 C          61.6871   82.1278   14.2353 C.3     1  UNL1        0.0721
     29 N          61.3632   80.7373   13.7753 N.3     1  UNL1       -0.2715
     30 C          60.2894   79.9500   14.4659 C.3     1  UNL1        0.0896
     31 C          62.1131   80.1343   12.6246 C.3     1  UNL1        0.0721
     32 C          63.1868   80.9216   11.9340 C.3     1  UNL1        0.0175
@<TRIPOS>BOND
     1    12    13    1
     2    13    14    2
     3    14    15    1
     4    15    16    2
     5    16    17    1
     6    16    18    1
     7    18    11    1
     8    11     1    1
     9     1     2   ar
    10     2     3   ar
    11     3     4   ar
    12     4     5   ar
    13     5     6   ar
    14     6     7   ar
    15     7    23    1
    16    23    24    1
    17    24    25    1
    18    25    26    1
    19    26    27    1
    20    27    28    1
    21    28    29    1
    22    29    30    1
    23    29    31    1
    24    31    32    1
    25     7     8   ar
    26     8     9    1
    27     8    10   ar
    28    18    19    2
    29    19    20    1
    30    20    21    1
    31    21    22    2
    32    22    13    1
    33    21    15    1
    34    10     1   ar
    35    10     5   ar
    36    32    26    1
@<TRIPOS>MOLECULE
*****
 32 36 0 0 0
SMALL
GASTEIGER

@<TRIPOS>ATOM
      1 C          62.1142   86.7625   11.3387 C.ar    1  UNL1        0.2490
      2 N          61.2088   86.0184   10.4026 N.ar    1  UNL1       -0.1863
      3 C          60.5054   86.7511    9.2988 C.ar    1  UNL1        0.2225
      4 N          60.7075   88.2279    9.1312 N.ar    1  UNL1       -0.1420
      5 N          61.6129   88.9720   10.0673 N.ar    1  UNL1       -0.2193
      6 C          62.0036   90.4179   10.1483 C.ar    1  UNL1        0.1371
      7 C          62.9485   90.5789   11.3021 C.ar    1  UNL1        0.1552
      8 C          63.1417   89.2324   11.9342 C.ar    1  UNL1        0.0359
      9 C          64.0083   88.9318   13.1211 C.3     1  UNL1        0.0360
     10 C          62.3163   88.2393   11.1711 C.ar    1  UNL1        0.1353
     11 O          62.8176   86.0297   12.4425 O.3     1  UNL1       -0.4328
     12 C          62.9737   78.4337   10.4679 C.3     1  UNL1        0.0521
     13 C          62.8650   79.7876   11.1044 C.2     1  UNL1        0.0591
     14 C          63.1266   81.1021   10.4308 C.2     1  UNL1        0.0182
     15 C          62.8989   82.1917   11.4364 C.2     1  UNL1        0.0455
     16 C          63.0059   83.6847   11.3401 C.2     1  UNL1        0.1752
     17 F          63.4082   84.3258   10.0450 F       1  UNL1       -0.2009
     18 C          62.7106   84.5367   12.5388 C.2     1  UNL1        0.1706
     19 C          62.3083   83.8956   13.8339 C.2     1  UNL1        0.0201
     20 C          62.2013   82.4024   13.9301 C.3     1  UNL1        0.0751
     21 C          62.4966   81.5505   12.7314 C.2     1  UNL1        0.0653
     22 N          62.4757   80.0648   12.5262 N.2     1  UNL1       -0.2536
     23 O          63.5879   91.8612   11.7458 O.3     1  UNL1       -0.4742
     24 C          64.5317   92.5844   10.8314 C.3     1  UNL1        0.2055
     25 C          66.0069   92.3281   10.9208 C.3     1  UNL1        0.0474
     26 C          66.7317   92.5616   12.2132 C.3     1  UNL1        0.0065
     27 C          67.9394   91.7403   12.5549 C.3     1  UNL1        0.0175
     28 C          68.6642   91.9738   13.8473 C.3     1  UNL1        0.0721
     29 N          68.1812   93.0287   14.7980 N.3     1  UNL1       -0.2715
     30 C          68.9059   93.2623   16.0903 C.3     1  UNL1        0.0896
     31 C          66.9734   93.8501   14.4563 C.3     1  UNL1        0.0721
     32 C          66.2487   93.6165   13.1639 C.3     1  UNL1        0.0175
@<TRIPOS>BOND
     1    12    13    1
     2    13    14    2
     3    14    15    1
     4    15    16    2
     5    16    17    1
     6    16    18    1
     7    18    11    1
     8    11     1    1
     9     1     2   ar
    10     2     3   ar
    11     3     4   ar
    12     4     5   ar
    13     5     6   ar
    14     6     7   ar
    15     7    23    1
    16    23    24    1
    17    24    25    1
    18    25    26    1
    19    26    27    1
    20    27    28    1
    21    28    29    1
    22    29    30    1
    23    29    31    1
    24    31    32    1
    25     7     8   ar
    26     8     9    1
    27     8    10   ar
    28    18    19    2
    29    19    20    1
    30    20    21    1
    31    21    22    2
    32    22    13    1
    33    21    15    1
    34    10     1   ar
    35    10     5   ar
    36    32    26    1
@<TRIPOS>MOLECULE
*****
 32 36 0 0 0
SMALL
GASTEIGER

@<TRIPOS>ATOM
      1 C          63.3077   86.4966   15.1761 C.ar    1  UNL1        0.2490
      2 N          62.9172   85.5525   16.2743 N.ar    1  UNL1       -0.1863
      3 C          62.6887   86.0709   17.6632 C.ar    1  UNL1        0.2225
      4 N          62.8509   87.5334   17.9540 N.ar    1  UNL1       -0.1420
      5 N          63.2415   88.4776   16.8558 N.ar    1  UNL1       -0.2193
      6 C          63.4744   89.9593   16.8416 C.ar    1  UNL1        0.1371
      7 C          63.8468   90.3567   15.4440 C.ar    1  UNL1        0.1552
      8 C          63.8440   89.1205   14.5944 C.ar    1  UNL1        0.0359
      9 C          64.1598   89.0568   13.1294 C.3     1  UNL1        0.0360
     10 C          63.4699   87.9592   15.4669 C.ar    1  UNL1        0.1353
     11 O          63.5362   85.9782   13.7872 O.3     1  UNL1       -0.4328
     12 C          62.8199   79.2492    9.8084 C.3     1  UNL1        0.0521
     13 C          62.9102   80.3706   10.8005 C.2     1  UNL1        0.0591
     14 C          63.1674   81.8131   10.4796 C.2     1  UNL1        0.0182
     15 C          63.1754   82.5805   11.7685 C.2     1  UNL1        0.0455
     16 C          63.3797   84.0358   12.0689 C.2     1  UNL1        0.1752
     17 F          63.6321   85.0040   10.9514 F       1  UNL1       -0.2009
     18 C          63.3318   84.5229   13.4868 C.2     1  UNL1        0.1706
     19 C          63.0794   83.5546   14.6043 C.2     1  UNL1        0.0201
     20 C          62.8751   82.0992   14.3038 C.3     1  UNL1        0.0751
     21 C          62.9230   81.6122   12.8860 C.2     1  UNL1        0.0653
     22 N          62.7592   80.2465   12.2877 N.2     1  UNL1       -0.2536
     23 O          64.1659   91.7462   14.9778 O.3     1  UNL1       -0.4742
     24 C          65.5916   92.2085   14.9183 C.3     1  UNL1        0.2055
     25 C          66.4972   91.7094   13.8317 C.3     1  UNL1        0.0474
     26 C          66.7302   92.5441   12.6073 C.3     1  UNL1        0.0065
     27 C          67.4956   91.9780   11.4481 C.3     1  UNL1        0.0175
     28 C          67.7286   92.8127   10.2238 C.3     1  UNL1        0.0721
     29 N          67.1963   94.2135   10.1586 N.3     1  UNL1       -0.2715
     30 C          67.4293   95.0482    8.9343 C.3     1  UNL1        0.0896
     31 C          66.4308   94.7797   11.3178 C.3     1  UNL1        0.0721
     32 C          66.1978   93.9450   12.5421 C.3     1  UNL1        0.0175
@<TRIPOS>BOND
     1    12    13    1
     2    13    14    2
     3    14    15    1
     4    15    16    2
     5    16    17    1
     6    16    18    1
     7    18    11    1
     8    11     1    1
     9     1     2   ar
    10     2     3   ar
    11     3     4   ar
    12     4     5   ar
    13     5     6   ar
    14     6     7   ar
    15     7    23    1
    16    23    24    1
    17    24    25    1
    18    25    26    1
    19    26    27    1
    20    27    28    1
    21    28    29    1
    22    29    30    1
    23    29    31    1
    24    31    32    1
    25     7     8   ar
    26     8     9    1
    27     8    10   ar
    28    18    19    2
    29    19    20    1
    30    20    21    1
    31    21    22    2
    32    22    13    1
    33    21    15    1
    34    10     1   ar
    35    10     5   ar
    36    32    26    1
