@<TRIPOS>MOLECULE
*****
 25 27 0 0 0
SMALL
GASTEIGER

@<TRIPOS>ATOM
      1 C          64.2933   91.6978   11.5197 C.3     1  UNL1        0.2635
      2 N          64.6511   91.3912   12.9437 N.ar    1  UNL1       -0.2903
      3 C          65.8005   91.8236   13.8052 C.ar    1  UNL1        0.1797
      4 N          65.6294   91.1945   15.1561 N.ar    1  UNL1       -0.2226
      5 C          64.3744   90.3734   15.1296 C.ar    1  UNL1        0.1148
      6 C          63.7698   90.4950   13.7622 C.ar    1  UNL1        0.0770
      7 C          62.5305   89.9054   13.1567 C.3     1  UNL1        0.1409
      8 N          62.1727   90.2120   11.7327 N.3     1  UNL1       -0.1489
      9 S          63.0540   91.1082   10.9142 S.O2    1  UNL1        0.0653
     10 O          61.9928   90.7917    9.9023 O.2     1  UNL1       -0.1554
     11 O          63.5669   91.8945    9.7442 O.2     1  UNL1       -0.1554
     12 C          60.9334   89.6224   11.1272 C.3     1  UNL1        0.1019
     13 C          59.5854   90.1638   11.5010 C.3     1  UNL1        0.0240
     14 C          61.0421   88.4914   10.1480 C.ar    1  UNL1       -0.0061
     15 C          62.1740   87.5128   10.2550 C.ar    1  UNL1       -0.0021
     16 C          62.2827   86.3819    9.2757 C.ar    1  UNL1        0.0111
     17 C          61.2595   86.2293    8.1894 C.ar    1  UNL1        0.0577
     18 CL         61.3682   85.0983    7.2102 Cl      1  UNL1       -0.0822
     19 C          60.1276   87.2078    8.0824 C.ar    1  UNL1        0.0111
     20 C          60.0190   88.3389    9.0617 C.ar    1  UNL1       -0.0021
     21 C          65.1746   92.5941   10.7011 C.3     1  UNL1        0.1908
     22 O          66.6498   92.3323   10.6284 O.3     1  UNL1       -0.3523
     23 C          67.2039   94.5471    9.3884 C.3     1  UNL1        0.0320
     24 C          67.5016   93.1030    9.6638 C.3     1  UNL1        0.1156
     25 C          68.6511   92.4296    8.9745 C.3     1  UNL1        0.0320
@<TRIPOS>BOND
     1    23    24    1
     2    24    25    1
     3    24    22    1
     4    22    21    1
     5    21     1    1
     6     1     2    1
     7     2     3   ar
     8     3     4   ar
     9     4     5   ar
    10     5     6   ar
    11     6     7    1
    12     7     8    1
    13     8    12    1
    14    12    13    1
    15    12    14    1
    16    14    15   ar
    17    15    16   ar
    18    16    17   ar
    19    17    18    1
    20    17    19   ar
    21    19    20   ar
    22     8     9    1
    23     9    10    2
    24     9    11    2
    25     9     1    1
    26     6     2   ar
    27    20    14   ar
@<TRIPOS>MOLECULE
*****
 25 27 0 0 0
SMALL
GASTEIGER

@<TRIPOS>ATOM
      1 C          64.1603   90.8619   13.0955 C.3     1  UNL1        0.2635
      2 N          64.9508   91.7543   12.1851 N.ar    1  UNL1       -0.2903
      3 C          66.2509   92.4789   12.3708 C.ar    1  UNL1        0.1797
      4 N          66.5510   93.2244   11.1042 N.ar    1  UNL1       -0.2226
      5 C          65.4363   92.9605   10.1358 C.ar    1  UNL1        0.1148
      6 C          64.4473   92.0519   10.8039 C.ar    1  UNL1        0.0770
      7 C          63.1534   91.4571   10.3329 C.3     1  UNL1        0.1409
      8 N          62.3629   90.5647   11.2432 N.3     1  UNL1       -0.1489
      9 S          62.8663   90.2671   12.6244 S.O2    1  UNL1        0.0653
     10 O          61.5936   89.4731   12.6343 O.2     1  UNL1       -0.1554
     11 O          62.9278   89.6937   14.0092 O.2     1  UNL1       -0.1554
     12 C          61.0688   89.9699   10.7721 C.3     1  UNL1        0.1019
     13 C          59.7650   90.5704   11.2074 C.3     1  UNL1        0.0240
     14 C          61.0787   88.7747    9.8658 C.ar    1  UNL1       -0.0061
     15 C          62.1867   87.7683    9.9637 C.ar    1  UNL1       -0.0021
     16 C          62.1966   86.5732    9.0574 C.ar    1  UNL1        0.0111
     17 C          61.0983   86.3843    8.0532 C.ar    1  UNL1        0.0577
     18 CL         61.1082   85.1891    7.1469 Cl      1  UNL1       -0.0822
     19 C          59.9903   87.3906    7.9553 C.ar    1  UNL1        0.0111
     20 C          59.9805   88.5858    8.8617 C.ar    1  UNL1       -0.0021
     21 C          64.6637   90.5642   14.4768 C.3     1  UNL1        0.1908
     22 O          65.9995   91.0857   14.9168 O.3     1  UNL1       -0.3523
     23 C          67.3334   93.0146   16.0347 C.3     1  UNL1        0.0320
     24 C          66.0766   92.2050   15.9124 C.3     1  UNL1        0.1156
     25 C          64.8970   92.5147   16.7856 C.3     1  UNL1        0.0320
@<TRIPOS>BOND
     1    23    24    1
     2    24    25    1
     3    24    22    1
     4    22    21    1
     5    21     1    1
     6     1     2    1
     7     2     3   ar
     8     3     4   ar
     9     4     5   ar
    10     5     6   ar
    11     6     7    1
    12     7     8    1
    13     8    12    1
    14    12    13    1
    15    12    14    1
    16    14    15   ar
    17    15    16   ar
    18    16    17   ar
    19    17    18    1
    20    17    19   ar
    21    19    20   ar
    22     8     9    1
    23     9    10    2
    24     9    11    2
    25     9     1    1
    26     6     2   ar
    27    20    14   ar
@<TRIPOS>MOLECULE
*****
 25 27 0 0 0
SMALL
GASTEIGER

@<TRIPOS>ATOM
      1 C          63.5926   90.8226   13.2608 C.3     1  UNL1        0.2635
      2 N          64.5895   91.5929   12.4467 N.ar    1  UNL1       -0.2903
      3 C          65.8866   92.2527   12.8102 C.ar    1  UNL1        0.1797
      4 N          66.4525   92.8773   11.5694 N.ar    1  UNL1       -0.2226
      5 C          65.5052   92.6037   10.4391 C.ar    1  UNL1        0.1148
      6 C          64.3537   91.8098   10.9813 C.ar    1  UNL1        0.0770
      7 C          63.1210   91.2565   10.3300 C.3     1  UNL1        0.1409
      8 N          62.1241   90.4862   11.1441 N.3     1  UNL1       -0.1489
      9 S          62.3598   90.2693   12.6094 S.O2    1  UNL1        0.0653
     10 O          61.0511   89.5543   12.4475 O.2     1  UNL1       -0.1554
     11 O          62.1411   89.8040   14.0186 O.2     1  UNL1       -0.1554
     12 C          60.8913   89.9328   10.4927 C.3     1  UNL1        0.1019
     13 C          59.5694   90.6140   10.6888 C.3     1  UNL1        0.0240
     14 C          60.9805   88.6984    9.6453 C.ar    1  UNL1       -0.0061
     15 C          62.1531   87.7738    9.7880 C.ar    1  UNL1       -0.0021
     16 C          62.2424   86.5394    8.9406 C.ar    1  UNL1        0.0111
     17 C          61.1590   86.2294    7.9505 C.ar    1  UNL1        0.0577
     18 CL         61.2482   84.9949    7.1031 Cl      1  UNL1       -0.0822
     19 C          59.9864   87.1539    7.8078 C.ar    1  UNL1        0.0111
     20 C          59.8972   88.3884    8.6553 C.ar    1  UNL1       -0.0021
     21 C          63.8283   90.6056   14.7262 C.3     1  UNL1        0.1908
     22 O          64.6894   89.4671   15.1868 O.3     1  UNL1       -0.3523
     23 C          63.1249   88.1981   16.8276 C.3     1  UNL1        0.0320
     24 C          64.0569   88.1891   15.6523 C.3     1  UNL1        0.1156
     25 C          64.3565   86.9021   14.9425 C.3     1  UNL1        0.0320
@<TRIPOS>BOND
     1    23    24    1
     2    24    25    1
     3    24    22    1
     4    22    21    1
     5    21     1    1
     6     1     2    1
     7     2     3   ar
     8     3     4   ar
     9     4     5   ar
    10     5     6   ar
    11     6     7    1
    12     7     8    1
    13     8    12    1
    14    12    13    1
    15    12    14    1
    16    14    15   ar
    17    15    16   ar
    18    16    17   ar
    19    17    18    1
    20    17    19   ar
    21    19    20   ar
    22     8     9    1
    23     9    10    2
    24     9    11    2
    25     9     1    1
    26     6     2   ar
    27    20    14   ar
@<TRIPOS>MOLECULE
*****
 25 27 0 0 0
SMALL
GASTEIGER

@<TRIPOS>ATOM
      1 C          65.5763   92.7799   12.3351 C.3     1  UNL1        0.2635
      2 N          66.1182   92.9390   13.7247 N.ar    1  UNL1       -0.2903
      3 C          67.0985   93.9090   14.3147 C.ar    1  UNL1        0.1797
      4 N          67.2554   93.5818   15.7701 N.ar    1  UNL1       -0.2226
      5 C          66.3721   92.4096   16.0796 C.ar    1  UNL1        0.1148
      6 C          65.6692   92.0123   14.8154 C.ar    1  UNL1        0.0770
      7 C          64.6785   90.9265   14.5166 C.3     1  UNL1        0.1409
      8 N          64.1366   90.7674   13.1270 N.3     1  UNL1       -0.1489
      9 S          64.5855   91.6940   12.0362 S.O2    1  UNL1        0.0653
     10 O          63.6360   90.8252   11.2656 O.2     1  UNL1       -0.1554
     11 O          64.7047   92.3190   10.6778 O.2     1  UNL1       -0.1554
     12 C          63.1458   89.6815   12.8281 C.3     1  UNL1        0.1019
     13 C          61.8350   90.0194   12.1820 C.3     1  UNL1        0.0240
     14 C          63.4658   88.2579   13.1755 C.ar    1  UNL1       -0.0061
     15 C          64.2553   87.9469   14.4125 C.ar    1  UNL1       -0.0021
     16 C          64.5753   86.5233   14.7598 C.ar    1  UNL1        0.0111
     17 C          64.1058   85.4104   13.8702 C.ar    1  UNL1        0.0577
     18 CL         64.4258   83.9867   14.2177 Cl      1  UNL1       -0.0822
     19 C          63.3162   85.7213   12.6333 C.ar    1  UNL1        0.0111
     20 C          62.9963   87.1451   12.2860 C.ar    1  UNL1       -0.0021
     21 C          66.0252   93.7065   11.2442 C.3     1  UNL1        0.1908
     22 O          67.4723   93.7592   10.8531 O.3     1  UNL1       -0.3523
     23 C          68.6088   92.4210    8.9381 C.3     1  UNL1        0.0320
     24 C          67.8643   93.6344    9.4107 C.3     1  UNL1        0.1156
     25 C          67.5119   94.7231    8.4408 C.3     1  UNL1        0.0320
@<TRIPOS>BOND
     1    23    24    1
     2    24    25    1
     3    24    22    1
     4    22    21    1
     5    21     1    1
     6     1     2    1
     7     2     3   ar
     8     3     4   ar
     9     4     5   ar
    10     5     6   ar
    11     6     7    1
    12     7     8    1
    13     8    12    1
    14    12    13    1
    15    12    14    1
    16    14    15   ar
    17    15    16   ar
    18    16    17   ar
    19    17    18    1
    20    17    19   ar
    21    19    20   ar
    22     8     9    1
    23     9    10    2
    24     9    11    2
    25     9     1    1
    26     6     2   ar
    27    20    14   ar
@<TRIPOS>MOLECULE
*****
 25 27 0 0 0
SMALL
GASTEIGER

@<TRIPOS>ATOM
      1 C          63.7616   85.8004   13.9125 C.3     1  UNL1        0.2635
      2 N          63.5840   84.3142   14.0100 N.ar    1  UNL1       -0.2903
      3 C          64.0728   83.3084   15.0098 C.ar    1  UNL1        0.1797
      4 N          63.5780   81.9568   14.5874 N.ar    1  UNL1       -0.2226
      5 C          62.7834   82.1273   13.3266 C.ar    1  UNL1        0.1148
      6 C          62.7871   83.5842   12.9698 C.ar    1  UNL1        0.0770
      7 C          62.1678   84.3405   11.8320 C.3     1  UNL1        0.1409
      8 N          62.3454   85.8267   11.7345 N.3     1  UNL1       -0.1489
      9 S          63.1422   86.5567   12.7747 S.O2    1  UNL1        0.0653
     10 O          62.7526   87.7050   11.8917 O.2     1  UNL1       -0.1554
     11 O          63.8038   87.6855   13.5083 O.2     1  UNL1       -0.1554
     12 C          61.7260   86.5829   10.5967 C.3     1  UNL1        0.1019
     13 C          61.1089   87.9286   10.8383 C.3     1  UNL1        0.0240
     14 C          61.7237   85.9936    9.2174 C.ar    1  UNL1       -0.0061
     15 C          60.4737   86.0282    8.3890 C.ar    1  UNL1       -0.0021
     16 C          60.4714   85.4388    7.0097 C.ar    1  UNL1        0.0111
     17 C          61.7193   84.8147    6.4587 C.ar    1  UNL1        0.0577
     18 CL         61.7170   84.2253    5.0793 Cl      1  UNL1       -0.0822
     19 C          62.9693   84.7801    7.2870 C.ar    1  UNL1        0.0111
     20 C          62.9715   85.3695    8.6664 C.ar    1  UNL1       -0.0021
     21 C          64.5584   86.5305   14.9527 C.3     1  UNL1        0.1908
     22 O          64.2653   86.3175   16.4083 O.3     1  UNL1       -0.3523
     23 C          63.1147   88.6300   16.6881 C.3     1  UNL1        0.0320
     24 C          63.2769   87.2001   17.1112 C.3     1  UNL1        0.1156
     25 C          62.4507   86.6527   18.2372 C.3     1  UNL1        0.0320
@<TRIPOS>BOND
     1    23    24    1
     2    24    25    1
     3    24    22    1
     4    22    21    1
     5    21     1    1
     6     1     2    1
     7     2     3   ar
     8     3     4   ar
     9     4     5   ar
    10     5     6   ar
    11     6     7    1
    12     7     8    1
    13     8    12    1
    14    12    13    1
    15    12    14    1
    16    14    15   ar
    17    15    16   ar
    18    16    17   ar
    19    17    18    1
    20    17    19   ar
    21    19    20   ar
    22     8     9    1
    23     9    10    2
    24     9    11    2
    25     9     1    1
    26     6     2   ar
    27    20    14   ar
@<TRIPOS>MOLECULE
*****
 25 27 0 0 0
SMALL
GASTEIGER

@<TRIPOS>ATOM
      1 C          62.0826   86.8896   11.3544 C.3     1  UNL1        0.2635
      2 N          61.2190   87.4291   10.2530 N.ar    1  UNL1       -0.2903
      3 C          60.3836   86.7501    9.2085 C.ar    1  UNL1        0.1797
      4 N          59.7357   87.8122    8.3706 N.ar    1  UNL1       -0.2226
      5 C          60.1708   89.1477    8.8972 C.ar    1  UNL1        0.1148
      6 C          61.0875   88.9109   10.0606 C.ar    1  UNL1        0.0770
      7 C          61.8195   89.8532   10.9696 C.3     1  UNL1        0.1409
      8 N          62.6831   89.3136   12.0710 N.3     1  UNL1       -0.1489
      9 S          62.8146   87.8319   12.2634 S.O2    1  UNL1        0.0653
     10 O          63.6990   88.3182   13.3732 O.2     1  UNL1       -0.1554
     11 O          63.2533   86.5189   12.8412 O.2     1  UNL1       -0.1554
     12 C          63.4151   90.2559   12.9801 C.3     1  UNL1        0.1019
     13 C          63.2433   90.1494   14.4664 C.3     1  UNL1        0.0240
     14 C          64.3188   91.3046   12.4028 C.ar    1  UNL1       -0.0061
     15 C          65.3565   91.9586   13.2664 C.ar    1  UNL1       -0.0021
     16 C          66.2602   93.0073   12.6892 C.ar    1  UNL1        0.0111
     17 C          66.1264   93.4022   11.2482 C.ar    1  UNL1        0.0577
     18 CL         67.0302   94.4510   10.6710 Cl      1  UNL1       -0.0822
     19 C          65.0889   92.7483   10.3846 C.ar    1  UNL1        0.0111
     20 C          64.1851   91.6995   10.9619 C.ar    1  UNL1       -0.0021
     21 C          62.2141   85.4078   11.5469 C.3     1  UNL1        0.1908
     22 O          62.9628   84.5844   10.5411 O.3     1  UNL1       -0.3523
     23 C          62.6951   82.4175   11.9493 C.3     1  UNL1        0.0320
     24 C          63.4214   83.2011   10.8965 C.3     1  UNL1        0.1156
     25 C          64.6064   82.6016   10.1992 C.3     1  UNL1        0.0320
@<TRIPOS>BOND
     1    23    24    1
     2    24    25    1
     3    24    22    1
     4    22    21    1
     5    21     1    1
     6     1     2    1
     7     2     3   ar
     8     3     4   ar
     9     4     5   ar
    10     5     6   ar
    11     6     7    1
    12     7     8    1
    13     8    12    1
    14    12    13    1
    15    12    14    1
    16    14    15   ar
    17    15    16   ar
    18    16    17   ar
    19    17    18    1
    20    17    19   ar
    21    19    20   ar
    22     8     9    1
    23     9    10    2
    24     9    11    2
    25     9     1    1
    26     6     2   ar
    27    20    14   ar
@<TRIPOS>MOLECULE
*****
 25 27 0 0 0
SMALL
GASTEIGER

@<TRIPOS>ATOM
      1 C          62.9569   89.0735   12.1196 C.3     1  UNL1        0.2635
      2 N          62.1123   88.6426   10.9573 N.ar    1  UNL1       -0.2903
      3 C          61.4341   89.4184    9.8673 C.ar    1  UNL1        0.1797
      4 N          60.7244   88.4423    8.9764 N.ar    1  UNL1       -0.2226
      5 C          60.9641   87.0633    9.5158 C.ar    1  UNL1        0.1148
      6 C          61.8218   87.1871   10.7401 C.ar    1  UNL1        0.0770
      7 C          62.3759   86.1625   11.6852 C.3     1  UNL1        0.1409
      8 N          63.2205   86.5935   12.8475 N.3     1  UNL1       -0.1489
      9 S          63.5110   88.0489   13.0647 S.O2    1  UNL1        0.0653
     10 O          64.2558   87.4586   14.2253 O.2     1  UNL1       -0.1554
     11 O          64.0601   89.2994   13.6850 O.2     1  UNL1       -0.1554
     12 C          63.7746   85.5688   13.7926 C.3     1  UNL1        0.1019
     13 C          64.7039   85.9882   14.8928 C.3     1  UNL1        0.0240
     14 C          63.3994   84.1249   13.6375 C.ar    1  UNL1       -0.0061
     15 C          62.3640   83.5181   14.5375 C.ar    1  UNL1       -0.0021
     16 C          61.9888   82.0742   14.3824 C.ar    1  UNL1        0.0111
     17 C          62.6490   81.2368   13.3272 C.ar    1  UNL1        0.0577
     18 CL         62.2737   79.7928   13.1722 Cl      1  UNL1       -0.0822
     19 C          63.6843   81.8435   12.4273 C.ar    1  UNL1        0.0111
     20 C          64.0595   83.2876   12.5824 C.ar    1  UNL1       -0.0021
     21 C          63.2474   90.5290   12.3369 C.3     1  UNL1        0.1908
     22 O          63.9115   91.3306   11.2570 O.3     1  UNL1       -0.3523
     23 C          65.7049   93.0592   10.5183 C.3     1  UNL1        0.0320
     24 C          65.0583   92.2370   11.5934 C.3     1  UNL1        0.1156
     25 C          65.5586   92.3212   13.0050 C.3     1  UNL1        0.0320
@<TRIPOS>BOND
     1    23    24    1
     2    24    25    1
     3    24    22    1
     4    22    21    1
     5    21     1    1
     6     1     2    1
     7     2     3   ar
     8     3     4   ar
     9     4     5   ar
    10     5     6   ar
    11     6     7    1
    12     7     8    1
    13     8    12    1
    14    12    13    1
    15    12    14    1
    16    14    15   ar
    17    15    16   ar
    18    16    17   ar
    19    17    18    1
    20    17    19   ar
    21    19    20   ar
    22     8     9    1
    23     9    10    2
    24     9    11    2
    25     9     1    1
    26     6     2   ar
    27    20    14   ar
@<TRIPOS>MOLECULE
*****
 25 27 0 0 0
SMALL
GASTEIGER

@<TRIPOS>ATOM
      1 C          63.5088   86.0812   13.1033 C.3     1  UNL1        0.2635
      2 N          62.6986   86.1040   11.8412 N.ar    1  UNL1       -0.2903
      3 C          62.1635   85.0048   10.9720 C.ar    1  UNL1        0.1797
      4 N          61.4194   85.6356    9.8325 N.ar    1  UNL1       -0.2226
      5 C          61.4947   87.1246    9.9974 C.ar    1  UNL1        0.1148
      6 C          62.2852   87.4141   11.2389 C.ar    1  UNL1        0.0770
      7 C          62.6821   88.7014   11.8987 C.3     1  UNL1        0.1409
      8 N          63.4923   88.6786   13.1608 N.3     1  UNL1       -0.1489
      9 S          63.9057   87.3686   13.7631 S.O2    1  UNL1        0.0653
     10 O          64.5203   88.3151   14.7513 O.2     1  UNL1       -0.1554
     11 O          64.5325   86.3871   14.7086 O.2     1  UNL1       -0.1554
     12 C          63.8892   89.9660   13.8206 C.3     1  UNL1        0.1019
     13 C          63.5277   90.2163   15.2547 C.3     1  UNL1        0.0240
     14 C          64.6475   91.0029   13.0463 C.ar    1  UNL1       -0.0061
     15 C          65.8736   91.6329   13.6379 C.ar    1  UNL1       -0.0021
     16 C          66.6320   92.6699   12.8637 C.ar    1  UNL1        0.0111
     17 C          66.1643   93.0769   11.4977 C.ar    1  UNL1        0.0577
     18 CL         66.9227   94.1139   10.7234 Cl      1  UNL1       -0.0822
     19 C          64.9383   92.4469   10.9061 C.ar    1  UNL1        0.0111
     20 C          64.1799   91.4099   11.6805 C.ar    1  UNL1       -0.0021
     21 C          63.9222   84.7711   13.7057 C.3     1  UNL1        0.1908
     22 O          62.8804   83.8020   14.1806 O.3     1  UNL1       -0.3523
     23 C          63.8095   82.0048   12.5506 C.3     1  UNL1        0.0320
     24 C          62.8235   82.4191   13.6023 C.3     1  UNL1        0.1156
     25 C          61.7805   81.4506   14.0758 C.3     1  UNL1        0.0320
@<TRIPOS>BOND
     1    23    24    1
     2    24    25    1
     3    24    22    1
     4    22    21    1
     5    21     1    1
     6     1     2    1
     7     2     3   ar
     8     3     4   ar
     9     4     5   ar
    10     5     6   ar
    11     6     7    1
    12     7     8    1
    13     8    12    1
    14    12    13    1
    15    12    14    1
    16    14    15   ar
    17    15    16   ar
    18    16    17   ar
    19    17    18    1
    20    17    19   ar
    21    19    20   ar
    22     8     9    1
    23     9    10    2
    24     9    11    2
    25     9     1    1
    26     6     2   ar
    27    20    14   ar
@<TRIPOS>MOLECULE
*****
 25 27 0 0 0
SMALL
GASTEIGER

@<TRIPOS>ATOM
      1 C          62.6237   88.9161   11.9633 C.3     1  UNL1        0.2635
      2 N          61.6143   88.7819   10.8619 N.ar    1  UNL1       -0.2903
      3 C          60.9215   89.8004   10.0059 C.ar    1  UNL1        0.1797
      4 N          60.0089   89.0713    9.0648 N.ar    1  UNL1       -0.2226
      5 C          60.1377   87.6022    9.3392 C.ar    1  UNL1        0.1148
      6 C          61.1299   87.4234   10.4498 C.ar    1  UNL1        0.0770
      7 C          61.6549   86.1990   11.1392 C.3     1  UNL1        0.1409
      8 N          62.6643   86.3332   12.2406 N.3     1  UNL1       -0.1489
      9 S          63.1487   87.6916   12.6527 S.O2    1  UNL1        0.0653
     10 O          63.9371   86.8358   13.5994 O.2     1  UNL1       -0.1554
     11 O          63.9069   88.7530   13.3935 O.2     1  UNL1       -0.1554
     12 C          63.1893   85.1087   12.9300 C.3     1  UNL1        0.1019
     13 C          63.7160   85.2047   14.3312 C.3     1  UNL1        0.0240
     14 C          63.1876   83.7884   12.2182 C.ar    1  UNL1       -0.0061
     15 C          63.9228   83.6354   10.9197 C.ar    1  UNL1       -0.0021
     16 C          63.9211   82.3151   10.2079 C.ar    1  UNL1        0.0111
     17 C          63.1841   81.1477   10.7946 C.ar    1  UNL1        0.0577
     18 CL         63.1824   79.8273   10.0828 Cl      1  UNL1       -0.0822
     19 C          62.4489   81.3006   12.0931 C.ar    1  UNL1        0.0111
     20 C          62.4506   82.6211   12.8049 C.ar    1  UNL1       -0.0021
     21 C          63.1081   90.2746   12.3754 C.3     1  UNL1        0.1908
     22 O          63.6874   91.2064   11.3526 O.3     1  UNL1       -0.3523
     23 C          65.4308   92.0341   13.0919 C.3     1  UNL1        0.0320
     24 C          64.8702   92.0606   11.7009 C.3     1  UNL1        0.1156
     25 C          65.4924   92.9413   10.6582 C.3     1  UNL1        0.0320
@<TRIPOS>BOND
     1    23    24    1
     2    24    25    1
     3    24    22    1
     4    22    21    1
     5    21     1    1
     6     1     2    1
     7     2     3   ar
     8     3     4   ar
     9     4     5   ar
    10     5     6   ar
    11     6     7    1
    12     7     8    1
    13     8    12    1
    14    12    13    1
    15    12    14    1
    16    14    15   ar
    17    15    16   ar
    18    16    17   ar
    19    17    18    1
    20    17    19   ar
    21    19    20   ar
    22     8     9    1
    23     9    10    2
    24     9    11    2
    25     9     1    1
    26     6     2   ar
    27    20    14   ar
