@<TRIPOS>MOLECULE
*****
 24 26 0 0 0
SMALL
GASTEIGER

@<TRIPOS>ATOM
      1 C          65.7496   93.2988   11.4590 C.3     1  UNL1        0.1025
      2 C          64.8078   92.7214   10.4444 C.3     1  UNL1        0.0327
      3 C          63.9027   91.5862   10.8217 C.3     1  UNL1        0.0943
      4 N          63.9394   91.0286   12.2137 N.am    1  UNL1       -0.2761
      5 C          63.0344   89.8935   12.5910 C.2     1  UNL1        0.2490
      6 O          63.0711   89.3359   13.9830 O.2     1  UNL1       -0.2699
      7 C          64.8812   91.6061   13.2284 C.3     1  UNL1        0.0943
      8 C          65.7863   92.7412   12.8510 C.3     1  UNL1        0.0327
      9 C          62.0925   89.3160   11.5764 C.ar    1  UNL1        0.0542
     10 C          60.7707   89.9764   11.3187 C.ar    1  UNL1        0.0061
     11 C          59.8289   89.3989   10.3040 C.ar    1  UNL1        0.0198
     12 C          60.2090   88.1610    9.5471 C.ar    1  UNL1        0.0892
     13 N          59.4921   87.3682    8.4946 N.ar    1  UNL1       -0.2245
     14 C          60.3709   86.2178    8.1019 C.ar    1  UNL1        0.1567
     15 N          60.0466   85.1696    7.0790 N.pl3   1  UNL1       -0.3375
     16 S          61.6309   86.2996    8.9116 S.2     1  UNL1       -0.0520
     17 C          61.5309   87.5005    9.8048 C.ar    1  UNL1        0.0498
     18 C          62.4727   88.0780   10.8194 C.ar    1  UNL1        0.0126
     19 H          59.1889   85.2010    6.5969 H       1  UNL1        0.1442
     20 H          60.6916   84.4503    6.8898 H       1  UNL1        0.1442
     21 C          66.6546   94.4339   11.0817 C.2     1  UNL1        0.3167
     22 O          66.4456   95.7919   11.6837 O.2     1  UNL1       -0.2501
     23 C          67.6391   94.7087    8.6931 C.3     1  UNL1        0.2556
     24 O          67.7687   94.2112   10.1023 O.3     1  UNL1       -0.4444
@<TRIPOS>BOND
     1    23    24    1
     2    24    21    1
     3    21    22    2
     4    21     1    1
     5     1     2    1
     6     2     3    1
     7     3     4    1
     8     4     5   am
     9     5     6    2
    10     5     9    1
    11     9    10   ar
    12    10    11   ar
    13    11    12   ar
    14    12    13   ar
    15    13    14   ar
    16    14    15    1
    17    14    16   ar
    18    16    17   ar
    19    17    18   ar
    20     4     7    1
    21     7     8    1
    22     8     1    1
    23    18     9   ar
    24    17    12   ar
    25    15    19    1
    26    15    20    1
@<TRIPOS>MOLECULE
*****
 24 26 0 0 0
SMALL
GASTEIGER

@<TRIPOS>ATOM
      1 C          63.5509   86.4072   15.7704 C.3     1  UNL1        0.1025
      2 C          64.4438   86.9693   14.7042 C.3     1  UNL1        0.0327
      3 C          64.6751   88.4492   14.6230 C.3     1  UNL1        0.0943
      4 N          64.0136   89.3669   15.6080 N.am    1  UNL1       -0.2761
      5 C          64.2449   90.8466   15.5268 C.2     1  UNL1        0.2490
      6 O          63.5833   91.7643   16.5118 O.2     1  UNL1       -0.2699
      7 C          63.1206   88.8047   16.6742 C.3     1  UNL1        0.0943
      8 C          62.8893   87.3249   16.7554 C.3     1  UNL1        0.0327
      9 C          65.1378   91.4088   14.4606 C.ar    1  UNL1        0.0542
     10 C          66.6197   91.4772   14.6826 C.ar    1  UNL1        0.0061
     11 C          67.5126   92.0394   13.6164 C.ar    1  UNL1        0.0198
     12 C          66.9235   92.5332   12.3283 C.ar    1  UNL1        0.0892
     13 N          67.5484   93.1341   11.1042 N.ar    1  UNL1       -0.2245
     14 C          66.4526   93.4372   10.1257 C.ar    1  UNL1        0.1567
     15 N          66.6280   94.0468    8.7664 N.pl3   1  UNL1       -0.3375
     16 S          65.1506   93.0235   10.7451 S.2     1  UNL1       -0.0520
     17 C          65.4417   92.4648   12.1064 C.ar    1  UNL1        0.0498
     18 C          64.5488   91.9026   13.1725 C.ar    1  UNL1        0.0126
     19 H          67.5279   94.2858    8.4465 H       1  UNL1        0.1442
     20 H          65.8433   94.2080    8.1942 H       1  UNL1        0.1442
     21 C          63.3195   84.9274   15.8515 C.2     1  UNL1        0.3167
     22 O          62.0743   84.3973   16.4985 O.2     1  UNL1       -0.2501
     23 C          63.9374   83.0129   14.2074 C.3     1  UNL1        0.2556
     24 O          64.3333   83.9776   15.2857 O.3     1  UNL1       -0.4444
@<TRIPOS>BOND
     1    23    24    1
     2    24    21    1
     3    21    22    2
     4    21     1    1
     5     1     2    1
     6     2     3    1
     7     3     4    1
     8     4     5   am
     9     5     6    2
    10     5     9    1
    11     9    10   ar
    12    10    11   ar
    13    11    12   ar
    14    12    13   ar
    15    13    14   ar
    16    14    15    1
    17    14    16   ar
    18    16    17   ar
    19    17    18   ar
    20     4     7    1
    21     7     8    1
    22     8     1    1
    23    18     9   ar
    24    17    12   ar
    25    15    19    1
    26    15    20    1
@<TRIPOS>MOLECULE
*****
 24 26 0 0 0
SMALL
GASTEIGER

@<TRIPOS>ATOM
      1 C          63.5539   85.1274   15.2490 C.3     1  UNL1        0.1025
      2 C          63.8976   85.9127   14.0181 C.3     1  UNL1        0.0327
      3 C          63.9396   87.4112   14.0718 C.3     1  UNL1        0.0943
      4 N          63.6379   88.1244   15.3565 N.am    1  UNL1       -0.2761
      5 C          63.6800   89.6228   15.4103 C.2     1  UNL1        0.2490
      6 O          63.3783   90.3359   16.6950 O.2     1  UNL1       -0.2699
      7 C          63.2942   87.3390   16.5875 C.3     1  UNL1        0.0943
      8 C          63.2522   85.8406   16.5337 C.3     1  UNL1        0.0327
      9 C          64.0237   90.4081   14.1793 C.ar    1  UNL1        0.0542
     10 C          63.2519   90.1913   12.9116 C.ar    1  UNL1        0.0061
     11 C          63.5956   90.9767   11.6807 C.ar    1  UNL1        0.0198
     12 C          64.7111   91.9788   11.7176 C.ar    1  UNL1        0.0892
     13 N          65.2738   92.8934   10.6702 N.ar    1  UNL1       -0.2245
     14 C          66.3934   93.6753   11.2907 C.ar    1  UNL1        0.1567
     15 N          67.2359   94.7074   10.6013 N.pl3   1  UNL1       -0.3375
     16 S          66.5226   93.2441   12.7216 S.2     1  UNL1       -0.0520
     17 C          65.4829   92.1956   12.9854 C.ar    1  UNL1        0.0498
     18 C          65.1392   91.4103   14.2163 C.ar    1  UNL1        0.0126
     19 H          67.0737   94.9229    9.6545 H       1  UNL1        0.1442
     20 H          67.9511   95.1693   11.0958 H       1  UNL1        0.1442
     21 C          63.5119   83.6290   15.1952 C.2     1  UNL1        0.3167
     22 O          64.7501   82.8331   15.4839 O.2     1  UNL1       -0.2501
     23 C          62.2682   81.5905   14.1716 C.3     1  UNL1        0.2556
     24 O          62.2316   82.9264   14.8527 O.3     1  UNL1       -0.4444
@<TRIPOS>BOND
     1    23    24    1
     2    24    21    1
     3    21    22    2
     4    21     1    1
     5     1     2    1
     6     2     3    1
     7     3     4    1
     8     4     5   am
     9     5     6    2
    10     5     9    1
    11     9    10   ar
    12    10    11   ar
    13    11    12   ar
    14    12    13   ar
    15    13    14   ar
    16    14    15    1
    17    14    16   ar
    18    16    17   ar
    19    17    18   ar
    20     4     7    1
    21     7     8    1
    22     8     1    1
    23    18     9   ar
    24    17    12   ar
    25    15    19    1
    26    15    20    1
@<TRIPOS>MOLECULE
*****
 24 26 0 0 0
SMALL
GASTEIGER

@<TRIPOS>ATOM
      1 C          63.6721   90.2984   13.4527 C.3     1  UNL1        0.1025
      2 C          64.0209   88.8611   13.7024 C.3     1  UNL1        0.0327
      3 C          63.5379   87.7977   12.7611 C.3     1  UNL1        0.0943
      4 N          62.7062   88.1717   11.5702 N.am    1  UNL1       -0.2761
      5 C          62.2233   87.1083   10.6289 C.2     1  UNL1        0.2490
      6 O          61.3915   87.4823    9.4380 O.2     1  UNL1       -0.2699
      7 C          62.3574   89.6091   11.3205 C.3     1  UNL1        0.0943
      8 C          62.8403   90.6724   12.2618 C.3     1  UNL1        0.0327
      9 C          62.5721   85.6709   10.8785 C.ar    1  UNL1        0.0542
     10 C          63.1542   84.8379    9.7753 C.ar    1  UNL1        0.0061
     11 C          63.5030   83.4006   10.0250 C.ar    1  UNL1        0.0198
     12 C          63.2696   82.7963   11.3779 C.ar    1  UNL1        0.0892
     13 N          63.5129   81.4177   11.9169 N.ar    1  UNL1       -0.2245
     14 C          63.0811   81.3988   13.3532 C.ar    1  UNL1        0.1567
     15 N          63.1477   80.2200   14.2785 N.pl3   1  UNL1       -0.3375
     16 S          62.5709   82.7656   13.7019 S.2     1  UNL1       -0.0520
     17 C          62.6874   83.6293   12.4811 C.ar    1  UNL1        0.0498
     18 C          62.3387   85.0666   12.2314 C.ar    1  UNL1        0.0126
     19 H          63.5005   79.3596   13.9551 H       1  UNL1        0.1442
     20 H          62.8386   80.3066   15.2092 H       1  UNL1        0.1442
     21 C          64.1550   91.3618   14.3940 C.2     1  UNL1        0.3167
     22 O          63.5814   91.4562   15.7768 O.2     1  UNL1       -0.2501
     23 C          66.6266   91.8668   13.7726 C.3     1  UNL1        0.2556
     24 O          65.2115   92.3307   13.9525 O.3     1  UNL1       -0.4444
@<TRIPOS>BOND
     1    23    24    1
     2    24    21    1
     3    21    22    2
     4    21     1    1
     5     1     2    1
     6     2     3    1
     7     3     4    1
     8     4     5   am
     9     5     6    2
    10     5     9    1
    11     9    10   ar
    12    10    11   ar
    13    11    12   ar
    14    12    13   ar
    15    13    14   ar
    16    14    15    1
    17    14    16   ar
    18    16    17   ar
    19    17    18   ar
    20     4     7    1
    21     7     8    1
    22     8     1    1
    23    18     9   ar
    24    17    12   ar
    25    15    19    1
    26    15    20    1
@<TRIPOS>MOLECULE
*****
 24 26 0 0 0
SMALL
GASTEIGER

@<TRIPOS>ATOM
      1 C          63.6708   84.8770   13.5507 C.3     1  UNL1        0.1025
      2 C          64.3572   85.7972   14.5161 C.3     1  UNL1        0.0327
      3 C          64.3131   87.2808   14.2985 C.3     1  UNL1        0.0943
      4 N          63.5827   87.8439   13.1156 N.am    1  UNL1       -0.2761
      5 C          63.5385   89.3274   12.8981 C.2     1  UNL1        0.2490
      6 O          62.8081   89.8906   11.7151 O.2     1  UNL1       -0.2699
      7 C          62.8963   86.9236   12.1502 C.3     1  UNL1        0.0943
      8 C          62.9404   85.4401   12.3678 C.3     1  UNL1        0.0327
      9 C          64.2249   90.2478   13.8635 C.ar    1  UNL1        0.0542
     10 C          63.6014   90.5365   15.1968 C.ar    1  UNL1        0.0061
     11 C          64.2877   91.4568   16.1621 C.ar    1  UNL1        0.0198
     12 C          65.5976   92.0884   15.7941 C.ar    1  UNL1        0.0892
     13 N          66.5010   93.0299   16.5342 N.ar    1  UNL1       -0.2245
     14 C          67.6828   93.3229   15.6582 C.ar    1  UNL1        0.1567
     15 N          68.8353   94.2189   16.0031 N.pl3   1  UNL1       -0.3375
     16 S          67.5098   92.5626   14.3768 S.2     1  UNL1       -0.0520
     17 C          66.2211   91.7997   14.4608 C.ar    1  UNL1        0.0498
     18 C          65.5347   90.8794   13.4955 C.ar    1  UNL1        0.0126
     19 H          68.8592   94.6771   16.8741 H       1  UNL1        0.1442
     20 H          69.5679   94.3488   15.3584 H       1  UNL1        0.1442
     21 C          63.7149   83.3935   13.7682 C.2     1  UNL1        0.3167
     22 O          63.6666   82.8379   15.1608 O.2     1  UNL1       -0.2501
     23 C          62.8446   81.3227   12.4627 C.3     1  UNL1        0.2556
     24 O          63.8074   82.4656   12.5933 O.3     1  UNL1       -0.4444
@<TRIPOS>BOND
     1    23    24    1
     2    24    21    1
     3    21    22    2
     4    21     1    1
     5     1     2    1
     6     2     3    1
     7     3     4    1
     8     4     5   am
     9     5     6    2
    10     5     9    1
    11     9    10   ar
    12    10    11   ar
    13    11    12   ar
    14    12    13   ar
    15    13    14   ar
    16    14    15    1
    17    14    16   ar
    18    16    17   ar
    19    17    18   ar
    20     4     7    1
    21     7     8    1
    22     8     1    1
    23    18     9   ar
    24    17    12   ar
    25    15    19    1
    26    15    20    1
@<TRIPOS>MOLECULE
*****
 24 26 0 0 0
SMALL
GASTEIGER

@<TRIPOS>ATOM
      1 C          60.5329   88.1267    9.0829 C.3     1  UNL1        0.1025
      2 C          60.6736   86.7286    9.6079 C.3     1  UNL1        0.0327
      3 C          61.5643   86.4550   10.7835 C.3     1  UNL1        0.0943
      4 N          62.3143   87.5795   11.4339 N.am    1  UNL1       -0.2761
      5 C          63.2050   87.3059   12.6094 C.2     1  UNL1        0.2490
      6 O          63.9549   88.4304   13.2599 O.2     1  UNL1       -0.2699
      7 C          62.1735   88.9776   10.9089 C.3     1  UNL1        0.0943
      8 C          61.2828   89.2511    9.7334 C.3     1  UNL1        0.0327
      9 C          63.3457   85.9078   13.1345 C.ar    1  UNL1        0.0542
     10 C          64.0901   85.6580   14.4125 C.ar    1  UNL1        0.0061
     11 C          64.2308   84.2600   14.9375 C.ar    1  UNL1        0.0198
     12 C          63.6272   83.1117   14.1844 C.ar    1  UNL1        0.0892
     13 N          63.6031   81.6363   14.4542 N.ar    1  UNL1       -0.2245
     14 C          62.8438   80.9743   13.3428 C.ar    1  UNL1        0.1567
     15 N          62.5765   79.5041   13.2111 N.pl3   1  UNL1       -0.3375
     16 S          62.3987   82.0405   12.3862 S.2     1  UNL1       -0.0520
     17 C          62.8829   83.3615   12.9063 C.ar    1  UNL1        0.0498
     18 C          62.7421   84.7595   12.3814 C.ar    1  UNL1        0.0126
     19 H          62.9119   78.8797   13.8943 H       1  UNL1        0.1442
     20 H          62.0657   79.1637   12.4414 H       1  UNL1        0.1442
     21 C          59.6422   88.4002    7.9075 C.2     1  UNL1        0.3167
     22 O          58.6094   87.3922    7.4983 O.2     1  UNL1       -0.2501
     23 C          58.9561   89.9167    5.9125 C.3     1  UNL1        0.2556
     24 O          59.7842   89.6818    7.1411 O.3     1  UNL1       -0.4444
@<TRIPOS>BOND
     1    23    24    1
     2    24    21    1
     3    21    22    2
     4    21     1    1
     5     1     2    1
     6     2     3    1
     7     3     4    1
     8     4     5   am
     9     5     6    2
    10     5     9    1
    11     9    10   ar
    12    10    11   ar
    13    11    12   ar
    14    12    13   ar
    15    13    14   ar
    16    14    15    1
    17    14    16   ar
    18    16    17   ar
    19    17    18   ar
    20     4     7    1
    21     7     8    1
    22     8     1    1
    23    18     9   ar
    24    17    12   ar
    25    15    19    1
    26    15    20    1
@<TRIPOS>MOLECULE
*****
 24 26 0 0 0
SMALL
GASTEIGER

@<TRIPOS>ATOM
      1 C          62.5449   85.1696   12.3830 C.3     1  UNL1        0.1025
      2 C          63.4666   86.1724   13.0114 C.3     1  UNL1        0.0327
      3 C          63.4597   87.5963   12.5395 C.3     1  UNL1        0.0943
      4 N          62.5311   88.0173   11.4392 N.am    1  UNL1       -0.2761
      5 C          62.5242   89.4411   10.9673 C.2     1  UNL1        0.2490
      6 O          61.5957   89.8620    9.8670 O.2     1  UNL1       -0.2699
      7 C          61.6095   87.0144   10.8108 C.3     1  UNL1        0.0943
      8 C          61.6164   85.5906   11.2827 C.3     1  UNL1        0.0327
      9 C          63.4459   90.4440   11.5957 C.ar    1  UNL1        0.0542
     10 C          64.0283   91.5500   10.7666 C.ar    1  UNL1        0.0061
     11 C          64.9499   92.5528   11.3950 C.ar    1  UNL1        0.0198
     12 C          65.2891   92.4497   12.8525 C.ar    1  UNL1        0.0892
     13 N          66.1614   93.2855   13.7416 N.ar    1  UNL1       -0.2245
     14 C          66.1181   92.6960   15.1202 C.ar    1  UNL1        0.1567
     15 N          66.8460   93.2154   16.3246 N.pl3   1  UNL1       -0.3375
     16 S          65.2190   91.4959   15.0831 S.2     1  UNL1       -0.0520
     17 C          64.7067   91.3436   13.6816 C.ar    1  UNL1        0.0498
     18 C          63.7851   90.3408   13.0532 C.ar    1  UNL1        0.0126
     19 H          67.4160   94.0146   16.2485 H       1  UNL1        0.1442
     20 H          66.7539   92.7572   17.1910 H       1  UNL1        0.1442
     21 C          62.5519   83.7458   12.8549 C.2     1  UNL1        0.3167
     22 O          62.7399   83.4393   14.3112 O.2     1  UNL1       -0.2501
     23 C          63.1834   81.3745   12.0016 C.3     1  UNL1        0.2556
     24 O          62.3708   82.6286   11.8706 O.3     1  UNL1       -0.4444
@<TRIPOS>BOND
     1    23    24    1
     2    24    21    1
     3    21    22    2
     4    21     1    1
     5     1     2    1
     6     2     3    1
     7     3     4    1
     8     4     5   am
     9     5     6    2
    10     5     9    1
    11     9    10   ar
    12    10    11   ar
    13    11    12   ar
    14    12    13   ar
    15    13    14   ar
    16    14    15    1
    17    14    16   ar
    18    16    17   ar
    19    17    18   ar
    20     4     7    1
    21     7     8    1
    22     8     1    1
    23    18     9   ar
    24    17    12   ar
    25    15    19    1
    26    15    20    1
@<TRIPOS>MOLECULE
*****
 24 26 0 0 0
SMALL
GASTEIGER

@<TRIPOS>ATOM
      1 C          60.3406   87.9960    9.0369 C.3     1  UNL1        0.1025
      2 C          61.0429   89.3013    9.2670 C.3     1  UNL1        0.0327
      3 C          62.0089   89.4426   10.4059 C.3     1  UNL1        0.0943
      4 N          62.2725   88.2786   11.3146 N.am    1  UNL1       -0.2761
      5 C          63.2385   88.4199   12.4534 C.2     1  UNL1        0.2490
      6 O          63.5021   87.2560   13.3621 O.2     1  UNL1       -0.2699
      7 C          61.5701   86.9734   11.0844 C.3     1  UNL1        0.0943
      8 C          60.6042   86.8321    9.9456 C.3     1  UNL1        0.0327
      9 C          63.9409   89.7252   12.6835 C.ar    1  UNL1        0.0542
     10 C          63.8397   90.8212   11.6645 C.ar    1  UNL1        0.0061
     11 C          64.5421   92.1265   11.8947 C.ar    1  UNL1        0.0198
     12 C          65.3457   92.3356   13.1440 C.ar    1  UNL1        0.0892
     13 N          66.1413   93.5060   13.6414 N.ar    1  UNL1       -0.2245
     14 C          66.7342   93.1332   14.9678 C.ar    1  UNL1        0.1567
     15 N          67.6037   94.0075   15.8220 N.pl3   1  UNL1       -0.3375
     16 S          66.3050   91.7325   15.2902 S.2     1  UNL1       -0.0520
     17 C          65.4468   91.2396   14.1630 C.ar    1  UNL1        0.0498
     18 C          64.7444   89.9344   13.9328 C.ar    1  UNL1        0.0126
     19 H          67.8315   94.9175   15.5231 H       1  UNL1        0.1442
     20 H          67.9465   93.6715   16.6816 H       1  UNL1        0.1442
     21 C          59.3746   87.8547    7.8981 C.2     1  UNL1        0.3167
     22 O          59.0293   86.4931    7.3720 O.2     1  UNL1       -0.2501
     23 C          59.4002   89.7309    6.1010 C.3     1  UNL1        0.2556
     24 O          58.7540   89.0751    7.2852 O.3     1  UNL1       -0.4444
@<TRIPOS>BOND
     1    23    24    1
     2    24    21    1
     3    21    22    2
     4    21     1    1
     5     1     2    1
     6     2     3    1
     7     3     4    1
     8     4     5   am
     9     5     6    2
    10     5     9    1
    11     9    10   ar
    12    10    11   ar
    13    11    12   ar
    14    12    13   ar
    15    13    14   ar
    16    14    15    1
    17    14    16   ar
    18    16    17   ar
    19    17    18   ar
    20     4     7    1
    21     7     8    1
    22     8     1    1
    23    18     9   ar
    24    17    12   ar
    25    15    19    1
    26    15    20    1
@<TRIPOS>MOLECULE
*****
 24 26 0 0 0
SMALL
GASTEIGER

@<TRIPOS>ATOM
      1 C          62.6039   89.0785   11.4776 C.3     1  UNL1        0.1025
      2 C          62.2182   87.6829   11.0858 C.3     1  UNL1        0.0327
      3 C          62.6721   86.5184   11.9153 C.3     1  UNL1        0.0943
      4 N          63.5118   86.7496   13.1366 N.am    1  UNL1       -0.2761
      5 C          63.9658   85.5852   13.9660 C.2     1  UNL1        0.2490
      6 O          64.8055   85.8164   15.1873 O.2     1  UNL1       -0.2699
      7 C          63.8975   88.1452   13.5283 C.3     1  UNL1        0.0943
      8 C          63.4436   89.3096   12.6989 C.3     1  UNL1        0.0327
      9 C          63.5801   84.1895   13.5742 C.ar    1  UNL1        0.0542
     10 C          62.9727   83.2665   14.5887 C.ar    1  UNL1        0.0061
     11 C          62.5871   81.8709   14.1969 C.ar    1  UNL1        0.0198
     12 C          62.8087   81.3984   12.7906 C.ar    1  UNL1        0.0892
     13 N          62.5309   80.0872   12.1168 N.ar    1  UNL1       -0.2245
     14 C          62.9666   80.2000   10.6860 C.ar    1  UNL1        0.1567
     15 N          62.8719   79.1214    9.6478 N.pl3   1  UNL1       -0.3375
     16 S          63.5136   81.5808   10.4754 S.2     1  UNL1       -0.0520
     17 C          63.4160   82.3214   11.7762 C.ar    1  UNL1        0.0498
     18 C          63.8017   83.7170   12.1680 C.ar    1  UNL1        0.0126
     19 H          62.4956   78.2428    9.8837 H       1  UNL1        0.1442
     20 H          63.1860   79.2921    8.7305 H       1  UNL1        0.1442
     21 C          62.1499   90.2428   10.6481 C.2     1  UNL1        0.3167
     22 O          63.1404   91.2772   10.2018 O.2     1  UNL1       -0.2501
     23 C          59.6499   90.4337   11.3290 C.3     1  UNL1        0.2556
     24 O          60.7055   90.3729   10.2650 O.3     1  UNL1       -0.4444
@<TRIPOS>BOND
     1    23    24    1
     2    24    21    1
     3    21    22    2
     4    21     1    1
     5     1     2    1
     6     2     3    1
     7     3     4    1
     8     4     5   am
     9     5     6    2
    10     5     9    1
    11     9    10   ar
    12    10    11   ar
    13    11    12   ar
    14    12    13   ar
    15    13    14   ar
    16    14    15    1
    17    14    16   ar
    18    16    17   ar
    19    17    18   ar
    20     4     7    1
    21     7     8    1
    22     8     1    1
    23    18     9   ar
    24    17    12   ar
    25    15    19    1
    26    15    20    1
