@<TRIPOS>MOLECULE
*****
 24 26 0 0 0
SMALL
GASTEIGER

@<TRIPOS>ATOM
      1 C          65.1221   92.0341   12.7843 C.2     1  UNL1       -0.0238
      2 C          65.3112   91.3149   14.0870 C.2     1  UNL1       -0.0420
      3 C          64.4746   90.0703   14.0549 C.3     1  UNL1        0.0480
      4 C          63.7685   90.0203   12.7325 C.ar    1  UNL1       -0.0176
      5 C          62.8129   89.0264   12.1419 C.ar    1  UNL1        0.0074
      6 C          62.2575   89.2462   10.7660 C.ar    1  UNL1        0.0574
      7 CL         61.3018   88.2522   10.1753 Cl      1  UNL1       -0.0823
      8 C          62.6577   90.4599    9.9807 C.ar    1  UNL1        0.0114
      9 C          63.6133   91.4538   10.5712 C.ar    1  UNL1        0.0002
     10 C          64.1687   91.2340   11.9471 C.ar    1  UNL1       -0.0078
     11 C          65.7723   93.3265   12.3883 C.3     1  UNL1        0.0763
     12 C          66.4389   94.5340   10.1865 C.ar    1  UNL1        0.2393
     13 N          67.2778   94.6020    8.9449 N.ar    1  UNL1       -0.2075
     14 C          68.2891   93.5305    8.6634 C.ar    1  UNL1        0.1227
     15 C          68.4615   92.3910    9.6236 C.ar    1  UNL1        0.1193
     16 N          67.6225   92.3231   10.8652 N.ar    1  UNL1       -0.2415
     17 C          66.6112   93.3946   11.1467 C.ar    1  UNL1        0.1163
     18 C          65.8390   96.8538   11.1908 C.3     1  UNL1        0.2543
     19 O          65.4276   95.6055   10.4679 O.3     1  UNL1       -0.4553
     20 C          66.1836   91.7619   15.2224 C.3     1  UNL1        0.0394
     21 C          66.8501   93.1047   15.1725 C.3     1  UNL1        0.0765
     22 N          68.3465   93.1980   15.1258 N.3     1  UNL1       -0.2700
     23 C          69.0642   94.1830   16.0003 C.3     1  UNL1        0.0897
     24 C          69.1252   92.3063   14.2046 C.3     1  UNL1        0.0897
@<TRIPOS>BOND
     1    18    19    1
     2    19    12    1
     3    12    13   ar
     4    13    14   ar
     5    14    15   ar
     6    15    16   ar
     7    16    17   ar
     8    17    11    1
     9    11     1    1
    10     1     2    2
    11     2    20    1
    12    20    21    1
    13    21    22    1
    14    22    23    1
    15    22    24    1
    16     2     3    1
    17     3     4    1
    18     4     5   ar
    19     5     6   ar
    20     6     7    1
    21     6     8   ar
    22     8     9   ar
    23     9    10   ar
    24    17    12   ar
    25    10     1    1
    26    10     4   ar
@<TRIPOS>MOLECULE
*****
 24 26 0 0 0
SMALL
GASTEIGER

@<TRIPOS>ATOM
      1 C          62.8709   89.4065   12.2335 C.2     1  UNL1       -0.0238
      2 C          63.4574   88.2097   12.9218 C.2     1  UNL1       -0.0420
      3 C          63.0189   86.9847   12.1754 C.3     1  UNL1        0.0480
      4 C          62.1615   87.4244   11.0258 C.ar    1  UNL1       -0.0176
      5 C          61.4523   86.6553    9.9509 C.ar    1  UNL1        0.0074
      6 C          60.6516   87.3829    8.9120 C.ar    1  UNL1        0.0574
      7 CL         59.9423   86.6138    7.8371 Cl      1  UNL1       -0.0823
      8 C          60.5602   88.8797    8.9479 C.ar    1  UNL1        0.0114
      9 C          61.2694   89.6488   10.0228 C.ar    1  UNL1        0.0002
     10 C          62.0701   88.9212   11.0617 C.ar    1  UNL1       -0.0078
     11 C          63.0534   90.8374   12.6448 C.3     1  UNL1        0.0763
     12 C          65.2870   92.0043   13.2764 C.ar    1  UNL1        0.2393
     13 N          66.5235   92.7498   12.8697 N.ar    1  UNL1       -0.2075
     14 C          66.7627   93.0740   11.4249 C.ar    1  UNL1        0.1227
     15 C          65.7654   92.6527   10.3866 C.ar    1  UNL1        0.1193
     16 N          64.5290   91.9072   10.7933 N.ar    1  UNL1       -0.2415
     17 C          64.2898   91.5829   12.2382 C.ar    1  UNL1        0.1163
     18 C          65.8361   92.3813   15.7877 C.3     1  UNL1        0.2543
     19 O          65.0479   91.6802   14.7213 O.3     1  UNL1       -0.4553
     20 C          64.3291   88.2336   14.1422 C.3     1  UNL1        0.0394
     21 C          64.1080   87.2375   15.2416 C.3     1  UNL1        0.0765
     22 N          63.3190   87.6247   16.4571 N.3     1  UNL1       -0.2700
     23 C          63.0628   89.0724   16.7551 C.3     1  UNL1        0.0897
     24 C          62.7862   86.5645   17.3746 C.3     1  UNL1        0.0897
@<TRIPOS>BOND
     1    18    19    1
     2    19    12    1
     3    12    13   ar
     4    13    14   ar
     5    14    15   ar
     6    15    16   ar
     7    16    17   ar
     8    17    11    1
     9    11     1    1
    10     1     2    2
    11     2    20    1
    12    20    21    1
    13    21    22    1
    14    22    23    1
    15    22    24    1
    16     2     3    1
    17     3     4    1
    18     4     5   ar
    19     5     6   ar
    20     6     7    1
    21     6     8   ar
    22     8     9   ar
    23     9    10   ar
    24    17    12   ar
    25    10     1    1
    26    10     4   ar
@<TRIPOS>MOLECULE
*****
 24 26 0 0 0
SMALL
GASTEIGER

@<TRIPOS>ATOM
      1 C          63.7075   87.4152   13.3692 C.2     1  UNL1       -0.0238
      2 C          63.8809   88.9035   13.4379 C.2     1  UNL1       -0.0420
      3 C          63.1712   89.5076   12.2625 C.3     1  UNL1        0.0480
      4 C          62.5592   88.3926   11.4674 C.ar    1  UNL1       -0.0176
      5 C          61.7429   88.3877   10.2090 C.ar    1  UNL1        0.0074
      6 C          61.2581   87.0897    9.6345 C.ar    1  UNL1        0.0574
      7 CL         60.4418   87.0848    8.3760 Cl      1  UNL1       -0.0823
      8 C          61.5895   85.7965   10.3185 C.ar    1  UNL1        0.0114
      9 C          62.4058   85.8014   11.5769 C.ar    1  UNL1        0.0002
     10 C          62.8906   87.0994   12.1514 C.ar    1  UNL1       -0.0078
     11 C          64.2548   86.4177   14.3467 C.3     1  UNL1        0.0763
     12 C          62.7034   84.4633   15.0700 C.ar    1  UNL1        0.2393
     13 N          62.3002   83.0216   14.9755 N.ar    1  UNL1       -0.2075
     14 C          63.0452   82.0926   14.0635 C.ar    1  UNL1        0.1227
     15 C          64.1935   82.6053   13.2457 C.ar    1  UNL1        0.1193
     16 N          64.5966   84.0470   13.3401 N.ar    1  UNL1       -0.2415
     17 C          63.8516   84.9761   14.2523 C.ar    1  UNL1        0.1163
     18 C          62.5989   85.8710   17.2511 C.3     1  UNL1        0.2543
     19 O          61.9583   85.3922   15.9821 O.3     1  UNL1       -0.4553
     20 C          64.6321   89.6557   14.4961 C.3     1  UNL1        0.0394
     21 C          64.3895   91.1235   14.6881 C.3     1  UNL1        0.0765
     22 N          65.3847   92.1216   14.1749 N.3     1  UNL1       -0.2700
     23 C          66.3223   92.8032   15.1269 C.3     1  UNL1        0.0897
     24 C          65.4422   92.4381   12.7099 C.3     1  UNL1        0.0897
@<TRIPOS>BOND
     1    18    19    1
     2    19    12    1
     3    12    13   ar
     4    13    14   ar
     5    14    15   ar
     6    15    16   ar
     7    16    17   ar
     8    17    11    1
     9    11     1    1
    10     1     2    2
    11     2    20    1
    12    20    21    1
    13    21    22    1
    14    22    23    1
    15    22    24    1
    16     2     3    1
    17     3     4    1
    18     4     5   ar
    19     5     6   ar
    20     6     7    1
    21     6     8   ar
    22     8     9   ar
    23     9    10   ar
    24    17    12   ar
    25    10     1    1
    26    10     4   ar
@<TRIPOS>MOLECULE
*****
 24 26 0 0 0
SMALL
GASTEIGER

@<TRIPOS>ATOM
      1 C          62.9558   89.3916   12.2232 C.2     1  UNL1       -0.0238
      2 C          62.2760   88.8544   10.9988 C.2     1  UNL1       -0.0420
      3 C          62.3473   87.3570   11.0484 C.3     1  UNL1        0.0480
      4 C          63.0713   86.9687   12.3035 C.ar    1  UNL1       -0.0176
      5 C          63.4366   85.6325   12.8789 C.ar    1  UNL1        0.0074
      6 C          64.1780   85.5539   14.1805 C.ar    1  UNL1        0.0574
      7 CL         64.5434   84.2177   14.7560 Cl      1  UNL1       -0.0823
      8 C          64.5541   86.8114   14.9066 C.ar    1  UNL1        0.0114
      9 C          64.1887   88.1476   14.3311 C.ar    1  UNL1        0.0002
     10 C          63.4473   88.2262   13.0296 C.ar    1  UNL1       -0.0078
     11 C          63.1160   90.8400   12.5789 C.3     1  UNL1        0.0763
     12 C          65.3723   91.9432   13.2439 C.ar    1  UNL1        0.2393
     13 N          66.6231   92.6762   12.8590 N.ar    1  UNL1       -0.2075
     14 C          66.8686   93.0388   11.4244 C.ar    1  UNL1        0.1227
     15 C          65.8632   92.6686   10.3746 C.ar    1  UNL1        0.1193
     16 N          64.6124   91.9356   10.7594 N.ar    1  UNL1       -0.2415
     17 C          64.3668   91.5729   12.1941 C.ar    1  UNL1        0.1163
     18 C          65.7727   92.3758   15.7742 C.3     1  UNL1        0.2543
     19 O          65.1269   91.5806   14.6786 O.3     1  UNL1       -0.4553
     20 C          61.6370   89.6713    9.9151 C.3     1  UNL1        0.0394
     21 C          60.1860   89.4786    9.5873 C.3     1  UNL1        0.0765
     22 N          59.7870   88.6058    8.4344 N.3     1  UNL1       -0.2700
     23 C          59.6777   87.1213    8.6202 C.3     1  UNL1        0.0897
     24 C          59.4973   89.2174    7.0958 C.3     1  UNL1        0.0897
@<TRIPOS>BOND
     1    18    19    1
     2    19    12    1
     3    12    13   ar
     4    13    14   ar
     5    14    15   ar
     6    15    16   ar
     7    16    17   ar
     8    17    11    1
     9    11     1    1
    10     1     2    2
    11     2    20    1
    12    20    21    1
    13    21    22    1
    14    22    23    1
    15    22    24    1
    16     2     3    1
    17     3     4    1
    18     4     5   ar
    19     5     6   ar
    20     6     7    1
    21     6     8   ar
    22     8     9   ar
    23     9    10   ar
    24    17    12   ar
    25    10     1    1
    26    10     4   ar
@<TRIPOS>MOLECULE
*****
 24 26 0 0 0
SMALL
GASTEIGER

@<TRIPOS>ATOM
      1 C          62.2562   88.7622   11.3701 C.2     1  UNL1       -0.0238
      2 C          62.1081   89.8102   10.3072 C.2     1  UNL1       -0.0420
      3 C          62.9657   90.9806   10.6876 C.3     1  UNL1        0.0480
      4 C          63.6437   90.6560   11.9856 C.ar    1  UNL1       -0.0176
      5 C          64.6037   91.4318   12.8380 C.ar    1  UNL1        0.0074
      6 C          65.1252   90.8364   14.1122 C.ar    1  UNL1        0.0574
      7 CL         66.0853   91.6122   14.9646 Cl      1  UNL1       -0.0823
      8 C          64.6867   89.4654   14.5340 C.ar    1  UNL1        0.0114
      9 C          63.7267   88.6897   13.6816 C.ar    1  UNL1        0.0002
     10 C          63.2052   89.2850   12.4075 C.ar    1  UNL1       -0.0078
     11 C          61.5748   87.4261   11.3919 C.3     1  UNL1        0.0763
     12 C          62.7348   85.1229   11.7078 C.ar    1  UNL1        0.2393
     13 N          63.4193   83.9223   11.1247 N.ar    1  UNL1       -0.2075
     14 C          63.6282   83.8243    9.6426 C.ar    1  UNL1        0.1227
     15 C          63.1528   84.9269    8.7435 C.ar    1  UNL1        0.1193
     16 N          62.4683   86.1275    9.3267 N.ar    1  UNL1       -0.2415
     17 C          62.2593   86.2255   10.8088 C.ar    1  UNL1        0.1163
     18 C          62.6788   84.0023   14.0511 C.3     1  UNL1        0.2543
     19 O          62.5258   85.2209   13.1899 O.3     1  UNL1       -0.4553
     20 C          61.2527   89.7060    9.0794 C.3     1  UNL1        0.0394
     21 C          59.9910   88.8955    9.1109 C.3     1  UNL1        0.0765
     22 N          59.4188   88.3486    7.8367 N.3     1  UNL1       -0.2700
     23 C          59.0304   86.9024    7.7490 C.3     1  UNL1        0.0897
     24 C          59.2351   89.2478    6.6503 C.3     1  UNL1        0.0897
@<TRIPOS>BOND
     1    18    19    1
     2    19    12    1
     3    12    13   ar
     4    13    14   ar
     5    14    15   ar
     6    15    16   ar
     7    16    17   ar
     8    17    11    1
     9    11     1    1
    10     1     2    2
    11     2    20    1
    12    20    21    1
    13    21    22    1
    14    22    23    1
    15    22    24    1
    16     2     3    1
    17     3     4    1
    18     4     5   ar
    19     5     6   ar
    20     6     7    1
    21     6     8   ar
    22     8     9   ar
    23     9    10   ar
    24    17    12   ar
    25    10     1    1
    26    10     4   ar
@<TRIPOS>MOLECULE
*****
 24 26 0 0 0
SMALL
GASTEIGER

@<TRIPOS>ATOM
      1 C          61.8056   86.7534   10.6179 C.2     1  UNL1       -0.0238
      2 C          60.5090   87.5048   10.5529 C.2     1  UNL1       -0.0420
      3 C          59.8817   87.2320    9.2180 C.3     1  UNL1        0.0480
      4 C          60.7905   86.3119    8.4581 C.ar    1  UNL1       -0.0176
      5 C          60.6889   85.7053    7.0900 C.ar    1  UNL1        0.0074
      6 C          61.7764   84.8028    6.5872 C.ar    1  UNL1        0.0574
      7 CL         61.6749   84.1961    5.2190 Cl      1  UNL1       -0.0823
      8 C          62.9655   84.5071    7.4524 C.ar    1  UNL1        0.0114
      9 C          63.0671   85.1137    8.8204 C.ar    1  UNL1        0.0002
     10 C          61.9796   86.0162    9.3233 C.ar    1  UNL1       -0.0078
     11 C          62.7606   86.7414   11.7746 C.3     1  UNL1        0.0763
     12 C          63.6992   85.5176   13.8654 C.ar    1  UNL1        0.2393
     13 N          63.9298   84.2506   14.6344 N.ar    1  UNL1       -0.2075
     14 C          63.4525   82.9403   14.0818 C.ar    1  UNL1        0.1227
     15 C          62.7445   82.8971   12.7601 C.ar    1  UNL1        0.1193
     16 N          62.5139   84.1641   11.9911 N.ar    1  UNL1       -0.2415
     17 C          62.9913   85.4744   12.5437 C.ar    1  UNL1        0.1163
     18 C          63.7913   87.2407   15.8077 C.3     1  UNL1        0.2543
     19 O          64.1766   86.8278   14.4180 O.3     1  UNL1       -0.4553
     20 C          59.9398   88.3761   11.6331 C.3     1  UNL1        0.0394
     21 C          60.3510   89.8153   11.7304 C.3     1  UNL1        0.0765
     22 N          61.8011   90.1887   11.6421 N.3     1  UNL1       -0.2700
     23 C          62.3782   90.6514   10.3371 C.3     1  UNL1        0.0897
     24 C          62.6740   90.0993   12.8586 C.3     1  UNL1        0.0897
@<TRIPOS>BOND
     1    18    19    1
     2    19    12    1
     3    12    13   ar
     4    13    14   ar
     5    14    15   ar
     6    15    16   ar
     7    16    17   ar
     8    17    11    1
     9    11     1    1
    10     1     2    2
    11     2    20    1
    12    20    21    1
    13    21    22    1
    14    22    23    1
    15    22    24    1
    16     2     3    1
    17     3     4    1
    18     4     5   ar
    19     5     6   ar
    20     6     7    1
    21     6     8   ar
    22     8     9   ar
    23     9    10   ar
    24    17    12   ar
    25    10     1    1
    26    10     4   ar
@<TRIPOS>MOLECULE
*****
 24 26 0 0 0
SMALL
GASTEIGER

@<TRIPOS>ATOM
      1 C          63.4467   85.9902   12.8194 C.2     1  UNL1       -0.0238
      2 C          63.0933   84.5708   12.4872 C.2     1  UNL1       -0.0420
      3 C          62.1614   84.5881   11.3119 C.3     1  UNL1        0.0480
      4 C          61.9388   86.0182   10.9178 C.ar    1  UNL1       -0.0176
      5 C          61.1154   86.6432    9.8309 C.ar    1  UNL1        0.0074
      6 C          61.0864   88.1349    9.6757 C.ar    1  UNL1        0.0574
      7 CL         60.2630   88.7600    8.5888 Cl      1  UNL1       -0.0823
      8 C          61.8807   89.0015   10.6074 C.ar    1  UNL1        0.0114
      9 C          62.7041   88.3764   11.6943 C.ar    1  UNL1        0.0002
     10 C          62.7331   86.8848   11.8495 C.ar    1  UNL1       -0.0078
     11 C          64.3542   86.4368   13.9271 C.3     1  UNL1        0.0763
     12 C          63.7151   88.2247   15.7005 C.ar    1  UNL1        0.2393
     13 N          63.1439   88.5777   17.0418 N.ar    1  UNL1       -0.2075
     14 C          62.6408   87.4960   17.9510 C.ar    1  UNL1        0.1227
     15 C          62.7088   86.0611   17.5190 C.ar    1  UNL1        0.1193
     16 N          63.2800   85.7081   16.1776 N.ar    1  UNL1       -0.2415
     17 C          63.7831   86.7899   15.2683 C.ar    1  UNL1        0.1163
     18 C          64.1645   90.7399   15.2298 C.3     1  UNL1        0.2543
     19 O          64.2181   89.3064   14.7913 O.3     1  UNL1       -0.4553
     20 C          63.5855   83.3487   13.2043 C.3     1  UNL1        0.0394
     21 C          62.6502   82.5616   14.0735 C.3     1  UNL1        0.0765
     22 N          62.0389   81.2917   13.5600 N.3     1  UNL1       -0.2700
     23 C          62.7159   80.5229   12.4642 C.3     1  UNL1        0.0897
     24 C          60.7505   80.7905   14.1422 C.3     1  UNL1        0.0897
@<TRIPOS>BOND
     1    18    19    1
     2    19    12    1
     3    12    13   ar
     4    13    14   ar
     5    14    15   ar
     6    15    16   ar
     7    16    17   ar
     8    17    11    1
     9    11     1    1
    10     1     2    2
    11     2    20    1
    12    20    21    1
    13    21    22    1
    14    22    23    1
    15    22    24    1
    16     2     3    1
    17     3     4    1
    18     4     5   ar
    19     5     6   ar
    20     6     7    1
    21     6     8   ar
    22     8     9   ar
    23     9    10   ar
    24    17    12   ar
    25    10     1    1
    26    10     4   ar
@<TRIPOS>MOLECULE
*****
 24 26 0 0 0
SMALL
GASTEIGER

@<TRIPOS>ATOM
      1 C          62.4702   85.2829   10.8356 C.2     1  UNL1       -0.0238
      2 C          63.1739   84.4497    9.8058 C.2     1  UNL1       -0.0420
      3 C          62.6785   84.8686    8.4533 C.3     1  UNL1        0.0480
      4 C          61.6687   85.9606    8.6473 C.ar    1  UNL1       -0.0176
      5 C          60.8497   86.7550    7.6735 C.ar    1  UNL1        0.0074
      6 C          59.9021   87.8054    8.1721 C.ar    1  UNL1        0.0574
      7 CL         59.0831   88.5998    7.1982 Cl      1  UNL1       -0.0823
      8 C          59.7734   88.0614    9.6444 C.ar    1  UNL1        0.0114
      9 C          60.5923   87.2671   10.6182 C.ar    1  UNL1        0.0002
     10 C          61.5399   86.2167   10.1197 C.ar    1  UNL1       -0.0078
     11 C          62.6629   85.1973   12.3207 C.3     1  UNL1        0.0763
     12 C          63.7825   86.1764   14.4510 C.ar    1  UNL1        0.2393
     13 N          64.3405   87.3478   15.2036 N.ar    1  UNL1       -0.2075
     14 C          64.3370   88.7114   14.5787 C.ar    1  UNL1        0.1227
     15 C          63.7755   88.9037   13.2011 C.ar    1  UNL1        0.1193
     16 N          63.2175   87.7323   12.4484 N.ar    1  UNL1       -0.2415
     17 C          63.2210   86.3686   13.0734 C.ar    1  UNL1        0.1163
     18 C          62.5735   84.3209   15.8095 C.3     1  UNL1        0.2543
     19 O          63.7860   84.8128   15.0760 O.3     1  UNL1       -0.4553
     20 C          64.1938   83.3846   10.0802 C.3     1  UNL1        0.0394
     21 C          63.7518   82.0081   10.4802 C.3     1  UNL1        0.0765
     22 N          63.6459   81.6468   11.9322 N.3     1  UNL1       -0.2700
     23 C          64.4955   82.3552   12.9453 C.3     1  UNL1        0.0897
     24 C          62.6904   80.5771   12.3710 C.3     1  UNL1        0.0897
@<TRIPOS>BOND
     1    18    19    1
     2    19    12    1
     3    12    13   ar
     4    13    14   ar
     5    14    15   ar
     6    15    16   ar
     7    16    17   ar
     8    17    11    1
     9    11     1    1
    10     1     2    2
    11     2    20    1
    12    20    21    1
    13    21    22    1
    14    22    23    1
    15    22    24    1
    16     2     3    1
    17     3     4    1
    18     4     5   ar
    19     5     6   ar
    20     6     7    1
    21     6     8   ar
    22     8     9   ar
    23     9    10   ar
    24    17    12   ar
    25    10     1    1
    26    10     4   ar
@<TRIPOS>MOLECULE
*****
 24 26 0 0 0
SMALL
GASTEIGER

@<TRIPOS>ATOM
      1 C          63.4354   88.7938   12.6649 C.2     1  UNL1       -0.0238
      2 C          64.0277   89.6477   13.7466 C.2     1  UNL1       -0.0420
      3 C          64.4976   88.7426   14.8466 C.3     1  UNL1        0.0480
      4 C          64.1957   87.3293   14.4448 C.ar    1  UNL1       -0.0176
      5 C          64.4338   86.0177   15.1325 C.ar    1  UNL1        0.0074
      6 C          64.0154   84.7377   14.4719 C.ar    1  UNL1        0.0574
      7 CL         64.2535   83.4260   15.1596 Cl      1  UNL1       -0.0823
      8 C          63.3589   84.7693   13.1235 C.ar    1  UNL1        0.0114
      9 C          63.1208   86.0809   12.4358 C.ar    1  UNL1        0.0002
     10 C          63.5392   87.3609   13.0965 C.ar    1  UNL1       -0.0078
     11 C          62.8432   89.2862   11.3778 C.3     1  UNL1        0.0763
     12 C          60.4824   88.3459   10.8369 C.ar    1  UNL1        0.2393
     13 N          59.5967   87.4468   10.0263 N.ar    1  UNL1       -0.2075
     14 C          60.1858   86.5888    8.9462 C.ar    1  UNL1        0.1227
     15 C          61.6609   86.6299    8.6766 C.ar    1  UNL1        0.1193
     16 N          62.5466   87.5291    9.4871 N.ar    1  UNL1       -0.2415
     17 C          61.9574   88.3871   10.5673 C.ar    1  UNL1        0.1163
     18 C          59.3017   90.5392   11.5752 C.3     1  UNL1        0.2543
     19 O          59.8932   89.2038   11.9170 O.3     1  UNL1       -0.4553
     20 C          64.1318   91.1440   13.7309 C.3     1  UNL1        0.0394
     21 C          65.0158   91.8239   12.7278 C.3     1  UNL1        0.0765
     22 N          65.8524   92.9988   13.1398 N.3     1  UNL1       -0.2700
     23 C          66.2168   94.0498   12.1334 C.3     1  UNL1        0.0897
     24 C          66.3247   93.1226   14.5581 C.3     1  UNL1        0.0897
@<TRIPOS>BOND
     1    18    19    1
     2    19    12    1
     3    12    13   ar
     4    13    14   ar
     5    14    15   ar
     6    15    16   ar
     7    16    17   ar
     8    17    11    1
     9    11     1    1
    10     1     2    2
    11     2    20    1
    12    20    21    1
    13    21    22    1
    14    22    23    1
    15    22    24    1
    16     2     3    1
    17     3     4    1
    18     4     5   ar
    19     5     6   ar
    20     6     7    1
    21     6     8   ar
    22     8     9   ar
    23     9    10   ar
    24    17    12   ar
    25    10     1    1
    26    10     4   ar
