@<TRIPOS>MOLECULE
*****
 18 19 0 0 0
SMALL
GASTEIGER

@<TRIPOS>ATOM
      1 C          61.8000   86.4369    9.1909 C.3     1  UNL1        0.0244
      2 C          62.5368   85.3763    9.9540 C.ar    1  UNL1       -0.0224
      3 C          62.4310   85.3178   11.4491 C.ar    1  UNL1       -0.0043
      4 C          63.1678   84.2572   12.2121 C.ar    1  UNL1       -0.0003
      5 C          64.0103   83.2551   11.4800 C.ar    1  UNL1       -0.0000
      6 C          64.1161   83.3136    9.9849 C.ar    1  UNL1       -0.0003
      7 C          63.3793   84.3742    9.2219 C.ar    1  UNL1       -0.0043
      8 C          59.4994   86.6217    7.9978 C.3     1  UNL1        0.0003
      9 C          60.8858   86.0529    8.0654 C.3     1  UNL1        0.0044
     10 C          61.9774   87.8816    9.5533 C.3     1  UNL1        0.0326
     11 C          60.9757   88.5612   10.4391 C.3     1  UNL1        0.1516
     12 C          60.6276   90.0201   10.4193 C.3     1  UNL1        0.2326
     13 O          59.5830   90.2617   11.4683 O.2     1  UNL1       -0.4481
     14 C          59.2854   88.9520   12.1364 C.2     1  UNL1        0.2767
     15 N          58.3000   88.7320   13.2457 N.pl3   1  UNL1       -0.3133
     16 N          60.1462   87.9011   11.5003 N.2     1  UNL1       -0.2228
     17 H          57.7788   89.4890   13.5985 H       1  UNL1        0.1466
     18 H          58.1745   87.8305   13.6210 H       1  UNL1        0.1466
@<TRIPOS>BOND
     1     8     9    1
     2     1     9    1
     3     1    10    1
     4    11    10    1
     5    11    12    1
     6    12    13    1
     7    13    14    1
     8    14    15    1
     9    14    16    2
    10     1     2    1
    11     2     3   ar
    12     3     4   ar
    13     4     5   ar
    14     5     6   ar
    15     6     7   ar
    16    16    11    1
    17     7     2   ar
    18    15    17    1
    19    15    18    1
@<TRIPOS>MOLECULE
*****
 18 19 0 0 0
SMALL
GASTEIGER

@<TRIPOS>ATOM
      1 C          63.2453   83.3545   12.1046 C.3     1  UNL1        0.0244
      2 C          62.8714   84.3698   11.0655 C.ar    1  UNL1       -0.0224
      3 C          61.9528   85.5016   11.4192 C.ar    1  UNL1       -0.0043
      4 C          61.5789   86.5167   10.3802 C.ar    1  UNL1       -0.0003
      5 C          62.1236   86.4001    8.9874 C.ar    1  UNL1       -0.0000
      6 C          63.0422   85.2682    8.6337 C.ar    1  UNL1       -0.0003
      7 C          63.4161   84.2531    9.6728 C.ar    1  UNL1       -0.0043
      8 C          63.0692   80.9457   13.0619 C.3     1  UNL1        0.0003
      9 C          62.7275   81.9505   12.0019 C.3     1  UNL1        0.0044
     10 C          64.1371   83.7434   13.2463 C.3     1  UNL1        0.0326
     11 C          63.5568   84.4114   14.4574 C.3     1  UNL1        0.1516
     12 C          62.5883   83.7970   15.4242 C.3     1  UNL1        0.2326
     13 O          62.2759   84.8170   16.4787 O.2     1  UNL1       -0.4481
     14 C          63.0515   86.0618   16.1637 C.2     1  UNL1        0.2767
     15 N          63.0378   87.3339   16.9584 N.pl3   1  UNL1       -0.3133
     16 N          63.8430   85.8111   14.9145 N.2     1  UNL1       -0.2228
     17 H          62.4828   87.4022   17.7687 H       1  UNL1        0.1466
     18 H          63.5838   88.1006   16.6697 H       1  UNL1        0.1466
@<TRIPOS>BOND
     1     8     9    1
     2     1     9    1
     3     1    10    1
     4    11    10    1
     5    11    12    1
     6    12    13    1
     7    13    14    1
     8    14    15    1
     9    14    16    2
    10     1     2    1
    11     2     3   ar
    12     3     4   ar
    13     4     5   ar
    14     5     6   ar
    15     6     7   ar
    16    16    11    1
    17     7     2   ar
    18    15    17    1
    19    15    18    1
@<TRIPOS>MOLECULE
*****
 18 19 0 0 0
SMALL
GASTEIGER

@<TRIPOS>ATOM
      1 C          63.8873   84.0803   14.0444 C.3     1  UNL1        0.0244
      2 C          63.6766   84.1231   12.5599 C.ar    1  UNL1       -0.0224
      3 C          62.7189   85.1134   11.9666 C.ar    1  UNL1       -0.0043
      4 C          62.5082   85.1563   10.4821 C.ar    1  UNL1       -0.0003
      5 C          63.2553   84.2088    9.5909 C.ar    1  UNL1       -0.0000
      6 C          64.2130   83.2185   10.1842 C.ar    1  UNL1       -0.0003
      7 C          64.4237   83.1757   11.6687 C.ar    1  UNL1       -0.0043
      8 C          62.0897   82.2235   14.3108 C.3     1  UNL1        0.0003
      9 C          63.2541   82.9928   14.8607 C.3     1  UNL1        0.0044
     10 C          64.7313   85.1249   14.7126 C.3     1  UNL1        0.0326
     11 C          64.0797   86.2463   15.4660 C.3     1  UNL1        0.1516
     12 C          63.3001   86.1162   16.7409 C.3     1  UNL1        0.2326
     13 O          62.8319   87.4843   17.1397 O.2     1  UNL1       -0.4481
     14 C          63.3222   88.4600   16.1112 C.2     1  UNL1        0.2767
     15 N          63.0832   89.9409   16.1163 N.pl3   1  UNL1       -0.3133
     16 N          64.0933   87.6949   15.0769 N.2     1  UNL1       -0.2228
     17 H          62.5616   90.3528   16.8426 H       1  UNL1        0.1466
     18 H          63.4479   90.5008   15.3933 H       1  UNL1        0.1466
@<TRIPOS>BOND
     1     8     9    1
     2     1     9    1
     3     1    10    1
     4    11    10    1
     5    11    12    1
     6    12    13    1
     7    13    14    1
     8    14    15    1
     9    14    16    2
    10     1     2    1
    11     2     3   ar
    12     3     4   ar
    13     4     5   ar
    14     5     6   ar
    15     6     7   ar
    16    16    11    1
    17     7     2   ar
    18    15    17    1
    19    15    18    1
@<TRIPOS>MOLECULE
*****
 18 19 0 0 0
SMALL
GASTEIGER

@<TRIPOS>ATOM
      1 C          61.8710   85.8895    9.9725 C.3     1  UNL1        0.0244
      2 C          62.6974   84.8052   10.5982 C.ar    1  UNL1       -0.0224
      3 C          62.6940   84.6243   12.0872 C.ar    1  UNL1       -0.0043
      4 C          63.5205   83.5401   12.7128 C.ar    1  UNL1       -0.0003
      5 C          64.3503   82.6368   11.8493 C.ar    1  UNL1       -0.0000
      6 C          64.3537   82.8178   10.3603 C.ar    1  UNL1       -0.0003
      7 C          63.5273   83.9020    9.7347 C.ar    1  UNL1       -0.0043
      8 C          60.4967   86.0511    7.7735 C.3     1  UNL1        0.0003
      9 C          61.8199   86.0268    8.4797 C.3     1  UNL1        0.0044
     10 C          61.0956   86.8364   10.8397 C.3     1  UNL1        0.0326
     11 C          61.5609   88.2526   11.0067 C.3     1  UNL1        0.1516
     12 C          61.3157   89.3801   10.0482 C.3     1  UNL1        0.2326
     13 O          61.9564   90.6142   10.6107 O.2     1  UNL1       -0.4481
     14 C          62.5976   90.2495   11.9168 C.2     1  UNL1        0.2767
     15 N          63.3510   91.1808   12.8197 N.pl3   1  UNL1       -0.3133
     16 N          62.3532   88.7899   12.1615 N.2     1  UNL1       -0.2228
     17 H          63.4588   92.1273   12.5712 H       1  UNL1        0.1466
     18 H          63.7376   90.8455   13.6607 H       1  UNL1        0.1466
@<TRIPOS>BOND
     1     8     9    1
     2     1     9    1
     3     1    10    1
     4    11    10    1
     5    11    12    1
     6    12    13    1
     7    13    14    1
     8    14    15    1
     9    14    16    2
    10     1     2    1
    11     2     3   ar
    12     3     4   ar
    13     4     5   ar
    14     5     6   ar
    15     6     7   ar
    16    16    11    1
    17     7     2   ar
    18    15    17    1
    19    15    18    1
@<TRIPOS>MOLECULE
*****
 18 19 0 0 0
SMALL
GASTEIGER

@<TRIPOS>ATOM
      1 C          62.0175   86.8425   10.3686 C.3     1  UNL1        0.0244
      2 C          62.4333   88.2196   10.7940 C.ar    1  UNL1       -0.0224
      3 C          62.2394   89.3819    9.8658 C.ar    1  UNL1       -0.0043
      4 C          62.6552   90.7588   10.2912 C.ar    1  UNL1       -0.0003
      5 C          63.2649   90.9735   11.6448 C.ar    1  UNL1       -0.0000
      6 C          63.4589   89.8113   12.5729 C.ar    1  UNL1       -0.0003
      7 C          63.0430   88.4343   12.1475 C.ar    1  UNL1       -0.0043
      8 C          63.0124   85.4562    8.4094 C.3     1  UNL1        0.0003
      9 C          62.0301   86.4706    8.9155 C.3     1  UNL1        0.0044
     10 C          61.5891   85.8375   11.3964 C.3     1  UNL1        0.0326
     11 C          62.6179   85.0261   12.1263 C.3     1  UNL1        0.1516
     12 C          63.3768   83.8579   11.5700 C.3     1  UNL1        0.2326
     13 O          64.2965   83.3502   12.6407 O.2     1  UNL1       -0.4481
     14 C          64.1061   84.2046   13.8588 C.2     1  UNL1        0.2767
     15 N          64.8265   84.0504   15.1654 N.pl3   1  UNL1       -0.3133
     16 N          63.0687   85.2404   13.5409 N.2     1  UNL1       -0.2228
     17 H          65.4943   83.3358   15.2779 H       1  UNL1        0.1466
     18 H          64.6316   84.6638   15.9104 H       1  UNL1        0.1466
@<TRIPOS>BOND
     1     8     9    1
     2     1     9    1
     3     1    10    1
     4    11    10    1
     5    11    12    1
     6    12    13    1
     7    13    14    1
     8    14    15    1
     9    14    16    2
    10     1     2    1
    11     2     3   ar
    12     3     4   ar
    13     4     5   ar
    14     5     6   ar
    15     6     7   ar
    16    16    11    1
    17     7     2   ar
    18    15    17    1
    19    15    18    1
@<TRIPOS>MOLECULE
*****
 18 19 0 0 0
SMALL
GASTEIGER

@<TRIPOS>ATOM
      1 C          61.8592   86.8759   10.2943 C.3     1  UNL1        0.0244
      2 C          61.7595   86.1539    8.9832 C.ar    1  UNL1       -0.0224
      3 C          60.4602   86.1355    8.2341 C.ar    1  UNL1       -0.0043
      4 C          60.3606   85.4135    6.9230 C.ar    1  UNL1       -0.0003
      5 C          61.5603   84.7100    6.3612 C.ar    1  UNL1       -0.0000
      6 C          62.8596   84.7283    7.1104 C.ar    1  UNL1       -0.0003
      7 C          62.9592   85.4503    8.4214 C.ar    1  UNL1       -0.0043
      8 C          61.3310   89.3656    9.7725 C.3     1  UNL1        0.0003
      9 C          62.2557   88.3221   10.3259 C.3     1  UNL1        0.0044
     10 C          61.5623   86.1515   11.5739 C.3     1  UNL1        0.0326
     11 C          62.6197   85.3065   12.2201 C.3     1  UNL1        0.1516
     12 C          63.0233   83.9245   11.7991 C.3     1  UNL1        0.2326
     13 O          64.1123   83.4589   12.7196 O.2     1  UNL1       -0.4481
     14 C          64.3818   84.5533   13.7095 C.2     1  UNL1        0.2767
     15 N          65.3958   84.5129   14.8142 N.pl3   1  UNL1       -0.3133
     16 N          63.4593   85.6951   13.4008 N.2     1  UNL1       -0.2228
     17 H          65.9579   83.7141   14.9374 H       1  UNL1        0.1466
     18 H          65.4991   85.2852   15.4160 H       1  UNL1        0.1466
@<TRIPOS>BOND
     1     8     9    1
     2     1     9    1
     3     1    10    1
     4    11    10    1
     5    11    12    1
     6    12    13    1
     7    13    14    1
     8    14    15    1
     9    14    16    2
    10     1     2    1
    11     2     3   ar
    12     3     4   ar
    13     4     5   ar
    14     5     6   ar
    15     6     7   ar
    16    16    11    1
    17     7     2   ar
    18    15    17    1
    19    15    18    1
@<TRIPOS>MOLECULE
*****
 18 19 0 0 0
SMALL
GASTEIGER

@<TRIPOS>ATOM
      1 C          63.8510   85.6773   14.7985 C.3     1  UNL1        0.0244
      2 C          63.7392   84.9102   13.5143 C.ar    1  UNL1       -0.0224
      3 C          62.7809   85.3613   12.4522 C.ar    1  UNL1       -0.0043
      4 C          62.6691   84.5943   11.1680 C.ar    1  UNL1       -0.0003
      5 C          63.5157   83.3761   10.9460 C.ar    1  UNL1       -0.0000
      6 C          64.4740   82.9249   12.0081 C.ar    1  UNL1       -0.0003
      7 C          64.5858   83.6920   13.2922 C.ar    1  UNL1       -0.0043
      8 C          62.9255   86.1208   17.1853 C.3     1  UNL1        0.0003
      9 C          63.1377   85.1929   16.0259 C.3     1  UNL1        0.0044
     10 C          64.6761   86.9287   14.8552 C.3     1  UNL1        0.0326
     11 C          64.0623   88.2487   14.4939 C.3     1  UNL1        0.1516
     12 C          63.7353   89.3596   15.4474 C.3     1  UNL1        0.2326
     13 O          63.1386   90.4872   14.6585 O.2     1  UNL1       -0.4481
     14 C          63.0968   90.0732   13.2173 C.2     1  UNL1        0.2767
     15 N          62.5756   90.8979   12.0778 N.pl3   1  UNL1       -0.3133
     16 N          63.6677   88.6898   13.1156 N.2     1  UNL1       -0.2228
     17 H          62.2188   91.7999   12.2459 H       1  UNL1        0.1466
     18 H          62.5905   90.5371   11.1619 H       1  UNL1        0.1466
@<TRIPOS>BOND
     1     8     9    1
     2     1     9    1
     3     1    10    1
     4    11    10    1
     5    11    12    1
     6    12    13    1
     7    13    14    1
     8    14    15    1
     9    14    16    2
    10     1     2    1
    11     2     3   ar
    12     3     4   ar
    13     4     5   ar
    14     5     6   ar
    15     6     7   ar
    16    16    11    1
    17     7     2   ar
    18    15    17    1
    19    15    18    1
@<TRIPOS>MOLECULE
*****
 18 19 0 0 0
SMALL
GASTEIGER

@<TRIPOS>ATOM
      1 C          63.0138   84.3151   12.3066 C.3     1  UNL1        0.0244
      2 C          62.7104   82.8869   12.6509 C.ar    1  UNL1       -0.0224
      3 C          63.0778   81.7908   11.6953 C.ar    1  UNL1       -0.0043
      4 C          62.7744   80.3627   12.0396 C.ar    1  UNL1       -0.0003
      5 C          62.1036   80.0309   13.3395 C.ar    1  UNL1       -0.0000
      6 C          61.7361   81.1270   14.2951 C.ar    1  UNL1       -0.0003
      7 C          62.0395   82.5551   13.9508 C.ar    1  UNL1       -0.0043
      8 C          64.7535   84.7890   14.1771 C.3     1  UNL1        0.0003
      9 C          63.5854   85.2322   13.3469 C.3     1  UNL1        0.0044
     10 C          62.7455   84.8261   10.9221 C.3     1  UNL1        0.0326
     11 C          61.7406   85.9188   10.7075 C.3     1  UNL1        0.1516
     12 C          60.9853   86.1855    9.4393 C.3     1  UNL1        0.2326
     13 O          60.0924   87.3682    9.6715 O.2     1  UNL1       -0.4481
     14 C          60.2958   87.8324   11.0833 C.2     1  UNL1        0.2767
     15 N          59.6024   88.9893   11.7396 N.pl3   1  UNL1       -0.3133
     16 N          61.3144   86.9366   11.7236 N.2     1  UNL1       -0.2228
     17 H          58.9455   89.5206   11.2341 H       1  UNL1        0.1466
     18 H          59.8041   89.2174   12.6758 H       1  UNL1        0.1466
@<TRIPOS>BOND
     1     8     9    1
     2     1     9    1
     3     1    10    1
     4    11    10    1
     5    11    12    1
     6    12    13    1
     7    13    14    1
     8    14    15    1
     9    14    16    2
    10     1     2    1
    11     2     3   ar
    12     3     4   ar
    13     4     5   ar
    14     5     6   ar
    15     6     7   ar
    16    16    11    1
    17     7     2   ar
    18    15    17    1
    19    15    18    1
@<TRIPOS>MOLECULE
*****
 18 19 0 0 0
SMALL
GASTEIGER

@<TRIPOS>ATOM
      1 C          62.0978   89.8364   11.4822 C.3     1  UNL1        0.0244
      2 C          63.2519   90.3122   12.3139 C.ar    1  UNL1       -0.0224
      3 C          64.0199   91.5332   11.9024 C.ar    1  UNL1       -0.0043
      4 C          65.1740   92.0089   12.7341 C.ar    1  UNL1       -0.0003
      5 C          65.5600   91.2636   13.9773 C.ar    1  UNL1       -0.0000
      6 C          64.7920   90.0427   14.3888 C.ar    1  UNL1       -0.0003
      7 C          63.6380   89.5670   13.5571 C.ar    1  UNL1       -0.0043
      8 C          59.6124   90.5738   11.3111 C.3     1  UNL1        0.0003
      9 C          60.7078   89.8589   12.0455 C.3     1  UNL1        0.0044
     10 C          62.3338   89.3382   10.0871 C.3     1  UNL1        0.0326
     11 C          61.5527   88.1682    9.5664 C.3     1  UNL1        0.1516
     12 C          61.8202   86.7239    9.8704 C.3     1  UNL1        0.2326
     13 O          60.7999   85.9002    9.1422 O.2     1  UNL1       -0.4481
     14 C          59.9017   86.8356    8.3881 C.2     1  UNL1        0.2767
     15 N          58.7418   86.4388    7.5236 N.pl3   1  UNL1       -0.3133
     16 N          60.3670   88.2372    8.6504 N.2     1  UNL1       -0.2228
     17 H          58.5132   85.4876    7.4127 H       1  UNL1        0.1466
     18 H          58.2091   87.1295    7.0672 H       1  UNL1        0.1466
@<TRIPOS>BOND
     1     8     9    1
     2     1     9    1
     3     1    10    1
     4    11    10    1
     5    11    12    1
     6    12    13    1
     7    13    14    1
     8    14    15    1
     9    14    16    2
    10     1     2    1
    11     2     3   ar
    12     3     4   ar
    13     4     5   ar
    14     5     6   ar
    15     6     7   ar
    16    16    11    1
    17     7     2   ar
    18    15    17    1
    19    15    18    1
