@<TRIPOS>MOLECULE
*****
 35 38 0 0 0
SMALL
GASTEIGER

@<TRIPOS>ATOM
      1 C          61.3464   88.0958    9.8223 C.3     1  UNL1        0.2250
      2 C          61.6129   86.6937    9.3608 C.2     1  UNL1        0.0436
      3 C          60.7107   86.0533    8.3479 C.2     1  UNL1        0.0288
      4 C          59.5420   86.8149    7.7965 C.2     1  UNL1        0.0896
      5 N          59.2754   88.2170    8.2580 N.am    1  UNL1       -0.1770
      6 C          60.1776   88.8574    9.2709 C.2     1  UNL1        0.2627
      7 O          59.9111   90.2595    9.7324 O.2     1  UNL1       -0.2719
      8 C          65.2482   91.4435   13.7174 C.2     1  UNL1        0.0394
      9 C          65.1504   90.2194   14.5786 C.2     1  UNL1        0.0002
     10 C          64.3202   89.0525   14.1321 C.2     1  UNL1        0.0244
     11 C          64.2224   87.8284   14.9935 C.3     1  UNL1        0.0350
     12 C          63.5878   89.1099   12.8243 C.2     1  UNL1        0.2277
     13 N          62.6996   88.1224   12.1273 N.2     1  UNL1       -0.0345
     14 C          62.2485   88.7363   10.8351 C.2     1  UNL1        0.3649
     15 N          62.8579   90.1032   10.7336 N.2     1  UNL1       -0.0380
     16 C          63.6857   90.3341   11.9631 C.2     1  UNL1        0.2173
     17 C          64.5158   91.5009   12.4096 C.3     1  UNL1        0.1086
     18 C          67.8961   93.6113   15.7272 C.3     1  UNL1        0.1109
     19 N          67.0659   92.4445   15.2807 N.am    1  UNL1       -0.2994
     20 C          66.0784   92.6104   14.1638 C.2     1  UNL1        0.2423
     21 O          65.9211   93.9429   13.4935 O.2     1  UNL1       -0.2705
     22 H          67.1691   91.5699   15.7207 H       1  UNL1        0.1498
     23 N          62.7816   85.9320    9.9121 N.pl3   1  UNL1       -0.3329
     24 H          63.4582   86.3952   10.4570 H       1  UNL1        0.1466
     25 C          62.9195   84.4647    9.6331 C.3     1  UNL1        0.1211
     26 C          63.6882   83.5905   10.5791 C.3     1  UNL1        0.1522
     27 O          64.9094   82.8614   10.1023 O.3     1  UNL1       -0.3783
     28 H          65.0613   83.0631    9.1658 H       1  UNL1        0.2109
     29 C          63.2358   83.4453   12.0018 C.ar    1  UNL1        0.0067
     30 C          63.6140   84.4813   13.0186 C.ar    1  UNL1       -0.0018
     31 C          63.1615   84.3361   14.4413 C.ar    1  UNL1        0.0006
     32 C          62.3308   83.1550   14.8474 C.ar    1  UNL1        0.0114
     33 C          61.9526   82.1190   13.8306 C.ar    1  UNL1        0.0574
     34 CL         61.1219   80.9379   14.2367 Cl      1  UNL1       -0.0823
     35 C          62.4051   82.2642   12.4079 C.ar    1  UNL1        0.0095
@<TRIPOS>BOND
     1    18    19    1
     2    19    20   am
     3    20    21    2
     4    20     8    1
     5     8     9    2
     6     9    10    1
     7    10    11    1
     8    10    12    2
     9    12    13    1
    10    13    14    2
    11    14     1    1
    12     1     2    1
    13     2    23    1
    14    23    25    1
    15    25    26    1
    16    26    27    1
    17    26    29    1
    18    29    30   ar
    19    30    31   ar
    20    31    32   ar
    21    32    33   ar
    22    33    34    1
    23    33    35   ar
    24     2     3    2
    25     3     4    1
    26     4     5    2
    27     5     6    1
    28     6     7    2
    29    14    15    1
    30    15    16    2
    31    16    17    1
    32    17     8    1
    33    16    12    1
    34     6     1    1
    35    35    29   ar
    36    19    22    1
    37    23    24    1
    38    27    28    1
@<TRIPOS>MOLECULE
*****
 35 38 0 0 0
SMALL
GASTEIGER

@<TRIPOS>ATOM
      1 C          63.5709   88.2409   15.5164 C.3     1  UNL1        0.2250
      2 C          63.6489   86.7740   15.2128 C.2     1  UNL1        0.0436
      3 C          63.3492   85.7692   16.2855 C.2     1  UNL1        0.0288
      4 C          62.9716   86.2312   17.6616 C.2     1  UNL1        0.0896
      5 N          62.8936   87.6981   17.9652 N.am    1  UNL1       -0.1770
      6 C          63.1933   88.7029   16.8925 C.2     1  UNL1        0.2627
      7 O          63.1154   90.1698   17.1961 O.2     1  UNL1       -0.2719
      8 C          65.3789   92.8395   11.3706 C.2     1  UNL1        0.0394
      9 C          64.3228   92.2256   10.5004 C.2     1  UNL1        0.0002
     10 C          63.5351   91.0483   10.9941 C.2     1  UNL1        0.0244
     11 C          62.4789   90.4343   10.1237 C.3     1  UNL1        0.0350
     12 C          63.8037   90.4851   12.3581 C.2     1  UNL1        0.2277
     13 N          63.1923   89.3397   13.1092 N.2     1  UNL1       -0.0345
     14 C          63.8706   89.2458   14.4437 C.2     1  UNL1        0.3649
     15 N          64.9012   90.3331   14.5174 N.2     1  UNL1       -0.0380
     16 C          64.8599   91.0991   13.2284 C.2     1  UNL1        0.2173
     17 C          65.6475   92.2763   12.7347 C.3     1  UNL1        0.1086
     18 C          66.3240   96.5547   10.3437 C.3     1  UNL1        0.1109
     19 N          65.5364   95.3774   10.8374 N.am    1  UNL1       -0.2994
     20 C          66.1666   94.0168   10.8769 C.2     1  UNL1        0.2423
     21 O          67.5843   93.8335   10.4229 O.2     1  UNL1       -0.2705
     22 H          64.6058   95.4977   11.1354 H       1  UNL1        0.1498
     23 N          64.0265   86.3119   13.8366 N.pl3   1  UNL1       -0.3329
     24 H          64.2178   86.9714   13.1311 H       1  UNL1        0.1466
     25 C          64.1128   84.8451   13.5353 C.3     1  UNL1        0.1211
     26 C          63.0869   84.1993   12.6518 C.3     1  UNL1        0.1522
     27 O          62.4374   82.9141   13.0718 O.3     1  UNL1       -0.3783
     28 H          62.7910   82.6393   13.9323 H       1  UNL1        0.2109
     29 C          62.7105   84.8388   11.3482 C.ar    1  UNL1        0.0067
     30 C          63.4084   84.4323   10.0842 C.ar    1  UNL1       -0.0018
     31 C          63.0321   85.0718    8.7806 C.ar    1  UNL1        0.0006
     32 C          61.9577   86.1179    8.7409 C.ar    1  UNL1        0.0114
     33 C          61.2599   86.5244   10.0049 C.ar    1  UNL1        0.0574
     34 CL         60.1855   87.5705    9.9652 Cl      1  UNL1       -0.0823
     35 C          61.6362   85.8849   11.3085 C.ar    1  UNL1        0.0095
@<TRIPOS>BOND
     1    18    19    1
     2    19    20   am
     3    20    21    2
     4    20     8    1
     5     8     9    2
     6     9    10    1
     7    10    11    1
     8    10    12    2
     9    12    13    1
    10    13    14    2
    11    14     1    1
    12     1     2    1
    13     2    23    1
    14    23    25    1
    15    25    26    1
    16    26    27    1
    17    26    29    1
    18    29    30   ar
    19    30    31   ar
    20    31    32   ar
    21    32    33   ar
    22    33    34    1
    23    33    35   ar
    24     2     3    2
    25     3     4    1
    26     4     5    2
    27     5     6    1
    28     6     7    2
    29    14    15    1
    30    15    16    2
    31    16    17    1
    32    17     8    1
    33    16    12    1
    34     6     1    1
    35    35    29   ar
    36    19    22    1
    37    23    24    1
    38    27    28    1
@<TRIPOS>MOLECULE
*****
 35 38 0 0 0
SMALL
GASTEIGER

@<TRIPOS>ATOM
      1 C          64.0159   90.8642   14.0463 C.3     1  UNL1        0.2250
      2 C          65.1643   91.7733   13.7230 C.2     1  UNL1        0.0436
      3 C          65.8965   92.4781   14.8264 C.2     1  UNL1        0.0288
      4 C          65.4801   92.2738   16.2529 C.2     1  UNL1        0.0896
      5 N          64.3317   91.3647   16.5761 N.am    1  UNL1       -0.1770
      6 C          63.5995   90.6599   15.4728 C.2     1  UNL1        0.2627
      7 O          62.4511   89.7508   15.7960 O.2     1  UNL1       -0.2719
      8 C          60.6738   88.5159    9.0544 C.2     1  UNL1        0.0394
      9 C          61.1039   87.1925    9.6143 C.2     1  UNL1        0.0002
     10 C          61.9530   87.1411   10.8499 C.2     1  UNL1        0.0244
     11 C          62.3831   85.8176   11.4098 C.3     1  UNL1        0.0350
     12 C          62.3721   88.4132   11.5253 C.2     1  UNL1        0.2277
     13 N          63.2013   88.6745   12.7476 N.2     1  UNL1       -0.0345
     14 C          63.2837   90.1594   12.9430 C.2     1  UNL1        0.3649
     15 N          62.5054   90.8158   11.8415 N.2     1  UNL1       -0.0380
     16 C          61.9420   89.7366   10.9652 C.2     1  UNL1        0.2173
     17 C          61.0929   89.7879    9.7298 C.3     1  UNL1        0.1086
     18 C          58.8370   89.9034    5.8216 C.3     1  UNL1        0.1109
     19 N          59.6861   89.8520    7.0571 N.am    1  UNL1       -0.2994
     20 C          59.8247   88.5673    7.8188 C.2     1  UNL1        0.2423
     21 O          59.1143   87.3341    7.3452 O.2     1  UNL1       -0.2705
     22 H          60.1524   90.6614    7.3680 H       1  UNL1        0.1498
     23 N          65.5807   91.9777   12.2966 N.pl3   1  UNL1       -0.3329
     24 H          64.9305   91.8424   11.5698 H       1  UNL1        0.1466
     25 C          66.9877   92.3882   11.9774 C.3     1  UNL1        0.1211
     26 C          67.3761   92.6967   10.5618 C.3     1  UNL1        0.1522
     27 O          68.0879   91.6653    9.7375 O.3     1  UNL1       -0.3783
     28 H          68.2185   90.8626   10.2663 H       1  UNL1        0.2109
     29 C          67.0526   94.0367    9.9704 C.ar    1  UNL1        0.0067
     30 C          67.9603   94.6410    8.9405 C.ar    1  UNL1       -0.0018
     31 C          67.6368   95.9810    8.3491 C.ar    1  UNL1        0.0006
     32 C          66.4055   96.7168    8.7877 C.ar    1  UNL1        0.0114
     33 C          65.4977   96.1126    9.8176 C.ar    1  UNL1        0.0574
     34 CL         64.2663   96.8484   10.2562 Cl      1  UNL1       -0.0823
     35 C          65.8212   94.7726   10.4090 C.ar    1  UNL1        0.0095
@<TRIPOS>BOND
     1    18    19    1
     2    19    20   am
     3    20    21    2
     4    20     8    1
     5     8     9    2
     6     9    10    1
     7    10    11    1
     8    10    12    2
     9    12    13    1
    10    13    14    2
    11    14     1    1
    12     1     2    1
    13     2    23    1
    14    23    25    1
    15    25    26    1
    16    26    27    1
    17    26    29    1
    18    29    30   ar
    19    30    31   ar
    20    31    32   ar
    21    32    33   ar
    22    33    34    1
    23    33    35   ar
    24     2     3    2
    25     3     4    1
    26     4     5    2
    27     5     6    1
    28     6     7    2
    29    14    15    1
    30    15    16    2
    31    16    17    1
    32    17     8    1
    33    16    12    1
    34     6     1    1
    35    35    29   ar
    36    19    22    1
    37    23    24    1
    38    27    28    1
@<TRIPOS>MOLECULE
*****
 35 38 0 0 0
SMALL
GASTEIGER

@<TRIPOS>ATOM
      1 C          63.1307   83.7818   12.2802 C.3     1  UNL1        0.2250
      2 C          62.9249   83.6502   13.7601 C.2     1  UNL1        0.0436
      3 C          63.5126   82.4841   14.4983 C.2     1  UNL1        0.0288
      4 C          64.3060   81.4495   13.7565 C.2     1  UNL1        0.0896
      5 N          64.5118   81.5812   12.2765 N.am    1  UNL1       -0.1770
      6 C          63.9241   82.7473   11.5384 C.2     1  UNL1        0.2627
      7 O          64.1300   82.8789   10.0584 O.2     1  UNL1       -0.2719
      8 C          60.2713   88.2905    8.6609 C.2     1  UNL1        0.0394
      9 C          60.9709   89.2337    9.5940 C.2     1  UNL1        0.0002
     10 C          61.8296   88.6955   10.6999 C.2     1  UNL1        0.0244
     11 C          62.5292   89.6388   11.6331 C.3     1  UNL1        0.0350
     12 C          61.9887   87.2140   10.8726 C.2     1  UNL1        0.2277
     13 N          62.7637   86.3965   11.8631 N.2     1  UNL1       -0.0345
     14 C          62.5431   84.9480   11.5420 C.2     1  UNL1        0.3649
     15 N          61.6317   84.8702   10.3531 N.2     1  UNL1       -0.0380
     16 C          61.2891   86.2707    9.9394 C.2     1  UNL1        0.2173
     17 C          60.4304   86.8090    8.8336 C.3     1  UNL1        0.1086
     18 C          59.0230   90.5380    5.6376 C.3     1  UNL1        0.1109
     19 N          59.8817   89.9998    6.7435 N.am    1  UNL1       -0.2994
     20 C          59.4126   88.8287    7.5549 C.2     1  UNL1        0.2423
     21 O          58.0850   88.1958    7.2605 O.2     1  UNL1       -0.2705
     22 H          60.7531   90.4151    6.9367 H       1  UNL1        0.1498
     23 N          62.1315   84.6847   14.5020 N.pl3   1  UNL1       -0.3329
     24 H          61.2169   84.9051   14.2118 H       1  UNL1        0.1466
     25 C          62.7315   85.3834   15.6860 C.3     1  UNL1        0.1211
     26 C          63.9776   86.2020   15.5215 C.3     1  UNL1        0.1522
     27 O          65.2909   85.5252   15.2623 O.3     1  UNL1       -0.3783
     28 H          65.1590   84.5647   15.2310 H       1  UNL1        0.2109
     29 C          63.9104   87.6975   15.6163 C.ar    1  UNL1        0.0067
     30 C          63.1760   88.3448   16.7527 C.ar    1  UNL1       -0.0018
     31 C          63.1087   89.8403   16.8475 C.ar    1  UNL1        0.0006
     32 C          63.7760   90.6886   15.8057 C.ar    1  UNL1        0.0114
     33 C          64.5104   90.0413   14.6693 C.ar    1  UNL1        0.0574
     34 CL         65.1776   90.8895   13.6275 Cl      1  UNL1       -0.0823
     35 C          64.5776   88.5458   14.5745 C.ar    1  UNL1        0.0095
@<TRIPOS>BOND
     1    18    19    1
     2    19    20   am
     3    20    21    2
     4    20     8    1
     5     8     9    2
     6     9    10    1
     7    10    11    1
     8    10    12    2
     9    12    13    1
    10    13    14    2
    11    14     1    1
    12     1     2    1
    13     2    23    1
    14    23    25    1
    15    25    26    1
    16    26    27    1
    17    26    29    1
    18    29    30   ar
    19    30    31   ar
    20    31    32   ar
    21    32    33   ar
    22    33    34    1
    23    33    35   ar
    24     2     3    2
    25     3     4    1
    26     4     5    2
    27     5     6    1
    28     6     7    2
    29    14    15    1
    30    15    16    2
    31    16    17    1
    32    17     8    1
    33    16    12    1
    34     6     1    1
    35    35    29   ar
    36    19    22    1
    37    23    24    1
    38    27    28    1
@<TRIPOS>MOLECULE
*****
 35 38 0 0 0
SMALL
GASTEIGER

@<TRIPOS>ATOM
      1 C          63.2526   83.4416   13.4789 C.3     1  UNL1        0.2250
      2 C          62.7922   83.2876   12.0596 C.2     1  UNL1        0.0436
      3 C          62.6716   81.9203   11.4545 C.2     1  UNL1        0.0288
      4 C          63.0113   80.7072   12.2686 C.2     1  UNL1        0.0896
      5 N          63.4717   80.8612   13.6879 N.am    1  UNL1       -0.1770
      6 C          63.5923   82.2284   14.2930 C.2     1  UNL1        0.2627
      7 O          64.0527   82.3825   15.7122 O.2     1  UNL1       -0.2719
      8 C          64.0508   89.5408   15.4193 C.2     1  UNL1        0.0394
      9 C          63.4851   89.0207   16.7074 C.2     1  UNL1        0.0002
     10 C          63.0977   87.5765   16.8275 C.2     1  UNL1        0.0244
     11 C          62.5319   87.0563   18.1157 C.3     1  UNL1        0.0350
     12 C          63.2761   86.6526   15.6593 C.2     1  UNL1        0.2277
     13 N          62.9865   85.1915   15.4819 N.2     1  UNL1       -0.0345
     14 C          63.3732   84.8088   14.0841 C.2     1  UNL1        0.3649
     15 N          63.9019   86.0333   13.3976 N.2     1  UNL1       -0.0380
     16 C          63.8418   87.1728   14.3712 C.2     1  UNL1        0.2173
     17 C          64.2292   88.6170   14.2512 C.3     1  UNL1        0.1086
     18 C          65.8855   92.8425   14.2016 C.3     1  UNL1        0.1109
     19 N          65.4981   91.3984   14.3217 N.am    1  UNL1       -0.2994
     20 C          64.4382   90.9850   15.2993 C.2     1  UNL1        0.2423
     21 O          63.7657   92.0157   16.1567 O.2     1  UNL1       -0.2705
     22 H          65.9395   90.7219   13.7589 H       1  UNL1        0.1498
     23 N          62.4524   84.5007   11.2455 N.pl3   1  UNL1       -0.3329
     24 H          61.7053   85.0818   11.5163 H       1  UNL1        0.1466
     25 C          63.2509   84.8284   10.0187 C.3     1  UNL1        0.1211
     26 C          62.5763   85.4370    8.8252 C.3     1  UNL1        0.1522
     27 O          62.7049   84.7880    7.4790 O.3     1  UNL1       -0.3783
     28 H          63.2528   83.9912    7.5552 H       1  UNL1        0.2109
     29 C          61.7731   86.6946    8.9779 C.ar    1  UNL1        0.0067
     30 C          60.4262   86.8079    8.3277 C.ar    1  UNL1       -0.0018
     31 C          59.6230   88.0655    8.4804 C.ar    1  UNL1        0.0006
     32 C          60.1667   89.2099    9.2833 C.ar    1  UNL1        0.0114
     33 C          61.5137   89.0966    9.9336 C.ar    1  UNL1        0.0574
     34 CL         62.0575   90.2409   10.7365 Cl      1  UNL1       -0.0823
     35 C          62.3169   87.8390    9.7809 C.ar    1  UNL1        0.0095
@<TRIPOS>BOND
     1    18    19    1
     2    19    20   am
     3    20    21    2
     4    20     8    1
     5     8     9    2
     6     9    10    1
     7    10    11    1
     8    10    12    2
     9    12    13    1
    10    13    14    2
    11    14     1    1
    12     1     2    1
    13     2    23    1
    14    23    25    1
    15    25    26    1
    16    26    27    1
    17    26    29    1
    18    29    30   ar
    19    30    31   ar
    20    31    32   ar
    21    32    33   ar
    22    33    34    1
    23    33    35   ar
    24     2     3    2
    25     3     4    1
    26     4     5    2
    27     5     6    1
    28     6     7    2
    29    14    15    1
    30    15    16    2
    31    16    17    1
    32    17     8    1
    33    16    12    1
    34     6     1    1
    35    35    29   ar
    36    19    22    1
    37    23    24    1
    38    27    28    1
@<TRIPOS>MOLECULE
*****
 35 38 0 0 0
SMALL
GASTEIGER

@<TRIPOS>ATOM
      1 C          63.1116   84.6963   13.1434 C.3     1  UNL1        0.2250
      2 C          63.7983   85.6222   14.1031 C.2     1  UNL1        0.0436
      3 C          64.3835   85.0844   15.3753 C.2     1  UNL1        0.0288
      4 C          64.2820   83.6208   15.6878 C.2     1  UNL1        0.0896
      5 N          63.5952   82.6949   14.7281 N.am    1  UNL1       -0.1770
      6 C          63.0100   83.2327   13.4559 C.2     1  UNL1        0.2627
      7 O          62.3232   82.3068   12.4962 O.2     1  UNL1       -0.2719
      8 C          60.1945   87.4739    8.1057 C.2     1  UNL1        0.0394
      9 C          61.0297   86.5113    7.3147 C.2     1  UNL1        0.0002
     10 C          61.9541   85.5643    8.0208 C.2     1  UNL1        0.0244
     11 C          62.7893   84.6016    7.2297 C.3     1  UNL1        0.0350
     12 C          62.0433   85.5800    9.5181 C.2     1  UNL1        0.2277
     13 N          62.8580   84.7711   10.4835 N.2     1  UNL1       -0.0345
     14 C          62.5263   85.2339   11.8712 C.2     1  UNL1        0.3649
     15 N          61.5067   86.3288   11.7635 N.2     1  UNL1       -0.0380
     16 C          61.2082   86.5427   10.3091 C.2     1  UNL1        0.2173
     17 C          60.2838   87.4896    9.6029 C.3     1  UNL1        0.1086
     18 C          58.8996   90.5695    5.9866 C.3     1  UNL1        0.1109
     19 N          59.8240   89.6225    6.6928 N.am    1  UNL1       -0.2994
     20 C          59.2701   88.4209    7.3995 C.2     1  UNL1        0.2423
     21 O          57.7919   88.1664    7.4001 O.2     1  UNL1       -0.2705
     22 H          60.7942   89.7895    6.6924 H       1  UNL1        0.1498
     23 N          63.8999   87.0857   13.7907 N.pl3   1  UNL1       -0.3329
     24 H          63.6792   87.4130   12.8888 H       1  UNL1        0.1466
     25 C          64.3378   88.0506   14.8524 C.3     1  UNL1        0.1211
     26 C          63.8372   89.4645   14.8334 C.3     1  UNL1        0.1522
     27 O          62.9575   89.9636   15.9412 O.3     1  UNL1       -0.3783
     28 H          62.8108   89.2514   16.5833 H       1  UNL1        0.2109
     29 C          64.2162   90.3793   13.7067 C.ar    1  UNL1        0.0067
     30 C          65.3754   91.3186   13.8607 C.ar    1  UNL1       -0.0018
     31 C          65.7544   92.2333   12.7340 C.ar    1  UNL1        0.0006
     32 C          64.9741   92.2088   11.4532 C.ar    1  UNL1        0.0114
     33 C          63.8149   91.2695   11.2991 C.ar    1  UNL1        0.0574
     34 CL         63.0346   91.2450   10.0183 Cl      1  UNL1       -0.0823
     35 C          63.4359   90.3548   12.4259 C.ar    1  UNL1        0.0095
@<TRIPOS>BOND
     1    18    19    1
     2    19    20   am
     3    20    21    2
     4    20     8    1
     5     8     9    2
     6     9    10    1
     7    10    11    1
     8    10    12    2
     9    12    13    1
    10    13    14    2
    11    14     1    1
    12     1     2    1
    13     2    23    1
    14    23    25    1
    15    25    26    1
    16    26    27    1
    17    26    29    1
    18    29    30   ar
    19    30    31   ar
    20    31    32   ar
    21    32    33   ar
    22    33    34    1
    23    33    35   ar
    24     2     3    2
    25     3     4    1
    26     4     5    2
    27     5     6    1
    28     6     7    2
    29    14    15    1
    30    15    16    2
    31    16    17    1
    32    17     8    1
    33    16    12    1
    34     6     1    1
    35    35    29   ar
    36    19    22    1
    37    23    24    1
    38    27    28    1
@<TRIPOS>MOLECULE
*****
 35 38 0 0 0
SMALL
GASTEIGER

@<TRIPOS>ATOM
      1 C          63.9615   90.1574   14.7067 C.3     1  UNL1        0.2250
      2 C          64.9860   91.2013   14.3739 C.2     1  UNL1        0.0436
      3 C          65.3648   92.2327   15.3950 C.2     1  UNL1        0.0288
      4 C          64.7192   92.2203   16.7489 C.2     1  UNL1        0.0896
      5 N          63.6947   91.1764   17.0817 N.am    1  UNL1       -0.1770
      6 C          63.3159   90.1450   16.0606 C.2     1  UNL1        0.2627
      7 O          62.2914   89.1011   16.3934 O.2     1  UNL1       -0.2719
      8 C          62.1125   86.2953    9.8830 C.2     1  UNL1        0.0394
      9 C          62.5744   85.2092   10.8087 C.2     1  UNL1        0.0002
     10 C          63.1335   85.5594   12.1559 C.2     1  UNL1        0.0244
     11 C          63.5955   84.4732   13.0816 C.3     1  UNL1        0.0350
     12 C          63.2306   86.9957   12.5772 C.2     1  UNL1        0.2277
     13 N          63.7337   87.6410   13.8344 N.2     1  UNL1       -0.0345
     14 C          63.5827   89.1259   13.6856 C.2     1  UNL1        0.3649
     15 N          62.9862   89.3984   12.3365 N.2     1  UNL1       -0.0380
     16 C          62.7687   88.0818   11.6515 C.2     1  UNL1        0.2173
     17 C          62.2096   87.7316   10.3044 C.3     1  UNL1        0.1086
     18 C          61.7690   84.7035    6.2638 C.3     1  UNL1        0.1109
     19 N          62.3280   85.0537    7.6110 N.am    1  UNL1       -0.2994
     20 C          61.5533   85.9451    8.5358 C.2     1  UNL1        0.2423
     21 O          60.2197   86.4863    8.1135 O.2     1  UNL1       -0.2705
     22 H          63.2034   84.6985    7.8882 H       1  UNL1        0.1498
     23 N          65.6316   91.2137   13.0200 N.pl3   1  UNL1       -0.3329
     24 H          66.3398   90.5640   12.8064 H       1  UNL1        0.1466
     25 C          65.1985   92.2161   11.9917 C.3     1  UNL1        0.1211
     26 C          65.9439   93.5094   11.8444 C.3     1  UNL1        0.1522
     27 O          65.9222   94.5182   12.9543 O.3     1  UNL1       -0.3783
     28 H          65.3851   94.1802   13.6879 H       1  UNL1        0.2109
     29 C          66.7109   93.7940   10.5872 C.ar    1  UNL1        0.0067
     30 C          67.5495   92.7195    9.9607 C.ar    1  UNL1       -0.0018
     31 C          68.3166   93.0041    8.7035 C.ar    1  UNL1        0.0006
     32 C          68.2451   94.3631    8.0727 C.ar    1  UNL1        0.0114
     33 C          67.4066   95.4375    8.6991 C.ar    1  UNL1        0.0574
     34 CL         67.3352   96.7965    8.0682 Cl      1  UNL1       -0.0823
     35 C          66.6395   95.1530    9.9563 C.ar    1  UNL1        0.0095
@<TRIPOS>BOND
     1    18    19    1
     2    19    20   am
     3    20    21    2
     4    20     8    1
     5     8     9    2
     6     9    10    1
     7    10    11    1
     8    10    12    2
     9    12    13    1
    10    13    14    2
    11    14     1    1
    12     1     2    1
    13     2    23    1
    14    23    25    1
    15    25    26    1
    16    26    27    1
    17    26    29    1
    18    29    30   ar
    19    30    31   ar
    20    31    32   ar
    21    32    33   ar
    22    33    34    1
    23    33    35   ar
    24     2     3    2
    25     3     4    1
    26     4     5    2
    27     5     6    1
    28     6     7    2
    29    14    15    1
    30    15    16    2
    31    16    17    1
    32    17     8    1
    33    16    12    1
    34     6     1    1
    35    35    29   ar
    36    19    22    1
    37    23    24    1
    38    27    28    1
@<TRIPOS>MOLECULE
*****
 35 38 0 0 0
SMALL
GASTEIGER

@<TRIPOS>ATOM
      1 C          62.9735   84.5129   13.4018 C.3     1  UNL1        0.2250
      2 C          63.0913   83.7651   12.1069 C.2     1  UNL1        0.0436
      3 C          62.7428   82.3073   12.0483 C.2     1  UNL1        0.0288
      4 C          62.2765   81.5973   13.2846 C.2     1  UNL1        0.0896
      5 N          62.1586   82.3451   14.5796 N.am    1  UNL1       -0.1770
      6 C          62.5071   83.8029   14.6381 C.2     1  UNL1        0.2627
      7 O          62.3893   84.5507   15.9331 O.2     1  UNL1       -0.2719
      8 C          64.8020   90.6310   14.3120 C.2     1  UNL1        0.0394
      9 C          64.1215   90.8468   12.9929 C.2     1  UNL1        0.0002
     10 C          63.4794   89.6922   12.2824 C.2     1  UNL1        0.0244
     11 C          62.7988   89.9081   10.9631 C.3     1  UNL1        0.0350
     12 C          63.5179   88.3219   12.8912 C.2     1  UNL1        0.2277
     13 N          62.9762   87.0021   12.4277 N.2     1  UNL1       -0.0345
     14 C          63.3219   85.9707   13.4605 C.2     1  UNL1        0.3649
     15 N          64.0773   86.6530   14.5623 N.2     1  UNL1       -0.0380
     16 C          64.1984   88.1061   14.2104 C.2     1  UNL1        0.2173
     17 C          64.8405   89.2607   14.9208 C.3     1  UNL1        0.1086
     18 C          67.4018   93.4780   15.2533 C.3     1  UNL1        0.1109
     19 N          66.7596   92.3234   14.5429 N.am    1  UNL1       -0.2994
     20 C          65.4441   91.7856   15.0225 C.2     1  UNL1        0.2423
     21 O          64.7706   92.4024   16.2124 O.2     1  UNL1       -0.2705
     22 H          67.2017   91.9186   13.7619 H       1  UNL1        0.1498
     23 N          63.5576   84.4750   10.8706 N.pl3   1  UNL1       -0.3329
     24 H          64.1856   85.2298   10.9436 H       1  UNL1        0.1466
     25 C          63.0673   84.0351    9.5230 C.3     1  UNL1        0.1211
     26 C          62.7201   85.0568    8.4810 C.3     1  UNL1        0.1522
     27 O          63.6197   85.2565    7.2975 O.3     1  UNL1       -0.3783
     28 H          64.3747   84.6506    7.3593 H       1  UNL1        0.2109
     29 C          61.4733   85.8786    8.6226 C.ar    1  UNL1        0.0067
     30 C          60.4491   85.8826    7.5268 C.ar    1  UNL1       -0.0018
     31 C          59.2023   86.7044    7.6684 C.ar    1  UNL1        0.0006
     32 C          58.9797   87.5224    8.9058 C.ar    1  UNL1        0.0114
     33 C          60.0039   87.5185   10.0017 C.ar    1  UNL1        0.0574
     34 CL         59.7813   88.3365   11.2392 Cl      1  UNL1       -0.0823
     35 C          61.2507   86.6966    9.8601 C.ar    1  UNL1        0.0095
@<TRIPOS>BOND
     1    18    19    1
     2    19    20   am
     3    20    21    2
     4    20     8    1
     5     8     9    2
     6     9    10    1
     7    10    11    1
     8    10    12    2
     9    12    13    1
    10    13    14    2
    11    14     1    1
    12     1     2    1
    13     2    23    1
    14    23    25    1
    15    25    26    1
    16    26    27    1
    17    26    29    1
    18    29    30   ar
    19    30    31   ar
    20    31    32   ar
    21    32    33   ar
    22    33    34    1
    23    33    35   ar
    24     2     3    2
    25     3     4    1
    26     4     5    2
    27     5     6    1
    28     6     7    2
    29    14    15    1
    30    15    16    2
    31    16    17    1
    32    17     8    1
    33    16    12    1
    34     6     1    1
    35    35    29   ar
    36    19    22    1
    37    23    24    1
    38    27    28    1
@<TRIPOS>MOLECULE
*****
 35 38 0 0 0
SMALL
GASTEIGER

@<TRIPOS>ATOM
      1 C          63.6939   90.5567   14.3897 C.3     1  UNL1        0.2250
      2 C          64.9070   91.4193   14.2050 C.2     1  UNL1        0.0436
      3 C          65.5473   92.0771   15.3914 C.2     1  UNL1        0.0288
      4 C          64.9744   91.8722   16.7624 C.2     1  UNL1        0.0896
      5 N          63.7613   91.0096   16.9472 N.am    1  UNL1       -0.1770
      6 C          63.1210   90.3518   15.7608 C.2     1  UNL1        0.2627
      7 O          61.9079   89.4892   15.9455 O.2     1  UNL1       -0.2719
      8 C          60.6901   88.4113    9.1003 C.2     1  UNL1        0.0394
      9 C          61.2282   87.0840    9.5457 C.2     1  UNL1        0.0002
     10 C          62.0519   86.9898   10.7959 C.2     1  UNL1        0.0244
     11 C          62.5900   85.6624   11.2413 C.3     1  UNL1        0.0350
     12 C          62.3373   88.2232   11.6005 C.2     1  UNL1        0.2277
     13 N          63.1126   88.4385   12.8665 N.2     1  UNL1       -0.0345
     14 C          63.0536   89.8990   13.2034 C.2     1  UNL1        0.3649
     15 N          62.2418   90.5863   12.1457 N.2     1  UNL1       -0.0380
     16 C          61.7991   89.5505   11.1551 C.2     1  UNL1        0.2173
     17 C          60.9755   89.6446    9.9049 C.3     1  UNL1        0.1086
     18 C          58.9457   89.9020    5.8623 C.3     1  UNL1        0.1109
     19 N          59.7693   89.8079    7.1124 N.am    1  UNL1       -0.2994
     20 C          59.8665   88.5054    7.8501 C.2     1  UNL1        0.2423
     21 O          59.1401   87.2973    7.3378 O.2     1  UNL1       -0.2705
     22 H          60.2460   90.6008    7.4487 H       1  UNL1        0.1498
     23 N          65.4799   91.6243   12.8339 N.pl3   1  UNL1       -0.3329
     24 H          66.1584   91.0015   12.4858 H       1  UNL1        0.1466
     25 C          65.0192   92.7779   11.9932 C.3     1  UNL1        0.1211
     26 C          65.9266   93.9506   11.7670 C.3     1  UNL1        0.1522
     27 O          66.0703   95.0031   12.8261 O.3     1  UNL1       -0.3783
     28 H          65.5130   94.7748   13.5865 H       1  UNL1        0.2109
     29 C          66.6905   94.0709   10.4817 C.ar    1  UNL1        0.0067
     30 C          66.6018   95.3301    9.6715 C.ar    1  UNL1       -0.0018
     31 C          67.3656   95.4504    8.3861 C.ar    1  UNL1        0.0006
     32 C          68.2181   94.3113    7.9109 C.ar    1  UNL1        0.0114
     33 C          68.3068   93.0521    8.7211 C.ar    1  UNL1        0.0574
     34 CL         69.1593   91.9131    8.2459 Cl      1  UNL1       -0.0823
     35 C          67.5430   92.9318   10.0064 C.ar    1  UNL1        0.0095
@<TRIPOS>BOND
     1    18    19    1
     2    19    20   am
     3    20    21    2
     4    20     8    1
     5     8     9    2
     6     9    10    1
     7    10    11    1
     8    10    12    2
     9    12    13    1
    10    13    14    2
    11    14     1    1
    12     1     2    1
    13     2    23    1
    14    23    25    1
    15    25    26    1
    16    26    27    1
    17    26    29    1
    18    29    30   ar
    19    30    31   ar
    20    31    32   ar
    21    32    33   ar
    22    33    34    1
    23    33    35   ar
    24     2     3    2
    25     3     4    1
    26     4     5    2
    27     5     6    1
    28     6     7    2
    29    14    15    1
    30    15    16    2
    31    16    17    1
    32    17     8    1
    33    16    12    1
    34     6     1    1
    35    35    29   ar
    36    19    22    1
    37    23    24    1
    38    27    28    1
