@<TRIPOS>MOLECULE
*****
 41 45 0 0 0
SMALL
GASTEIGER

@<TRIPOS>ATOM
      1 C          63.2498   90.3382   11.9073 C.ar    1  UNL1        0.0782
      2 N          63.4870   91.2834   10.7670 N.ar    1  UNL1       -0.2480
      3 C          64.4156   92.4488   10.9396 C.ar    1  UNL1        0.0812
      4 C          64.6529   93.3940    9.7994 C.ar    1  UNL1        0.0214
      5 C          65.5814   94.5593    9.9720 C.ar    1  UNL1        0.0312
      6 C          66.2727   94.7794   11.2849 C.ar    1  UNL1        0.1402
      7 F          67.2013   95.9447   11.4576 F       1  UNL1       -0.2042
      8 C          66.0354   93.8341   12.4252 C.ar    1  UNL1        0.0313
      9 C          65.1069   92.6689   12.2525 C.ar    1  UNL1        0.0243
     10 C          64.8696   91.7236   13.3928 C.ar    1  UNL1        0.0577
     11 C          63.9410   90.5583   13.2202 C.ar    1  UNL1        0.0372
     12 C          65.5609   91.9436   14.7057 C.2     1  UNL1        0.2492
     13 O          64.7572   92.0526   15.9675 O.2     1  UNL1       -0.2699
     14 N          67.0559   92.0547   14.7568 N.am    1  UNL1       -0.2732
     15 C          67.8596   91.9457   13.4950 C.3     1  UNL1        0.1108
     16 C          69.3546   92.0567   13.5461 C.3     1  UNL1        0.0904
     17 N          70.0459   92.2768   14.8590 N.3     1  UNL1       -0.2946
     18 C          69.2422   92.3858   16.1208 C.3     1  UNL1        0.0904
     19 C          67.7472   92.2748   16.0697 C.3     1  UNL1        0.1108
     20 H          70.5753   93.1442   14.7713 H       1  UNL1        0.1233
     21 C          63.7037   89.6130   14.3604 C.ar    1  UNL1        0.0826
     22 C          64.3922   88.2805   14.3857 C.ar    1  UNL1        0.0192
     23 C          64.1549   87.3352   15.5259 C.ar    1  UNL1        0.0031
     24 C          63.2292   87.7224   16.6408 C.ar    1  UNL1        0.0207
     25 C          62.5407   89.0548   16.6156 C.ar    1  UNL1        0.0988
     26 N          62.7780   90.0001   15.4754 N.ar    1  UNL1       -0.2438
     27 C          61.1174   89.0357   12.6190 C.3     1  UNL1        0.0278
     28 C          62.3212   89.1728   11.7346 C.3     1  UNL1        0.1110
     29 N          62.5964   88.1447   10.6777 N.pl3   1  UNL1       -0.3141
     30 H          63.4310   87.6231   10.7038 H       1  UNL1        0.1485
     31 C          61.6000   87.9112    9.5811 C.ar    1  UNL1        0.1429
     32 N          60.6507   89.0031    9.1853 N.ar    1  UNL1       -0.2084
     33 C          59.6543   88.7696    8.0886 C.ar    1  UNL1        0.2012
     34 N          59.6073   87.4443    7.3877 N.ar    1  UNL1       -0.2087
     35 C          60.5566   86.3525    7.7834 C.ar    1  UNL1        0.1396
     36 N          60.5095   85.0271    7.0825 N.pl3   1  UNL1       -0.3420
     37 C          61.5530   86.5859    8.8801 C.ar    1  UNL1        0.1308
     38 H          59.8556   84.8739    6.3627 H       1  UNL1        0.1437
     39 H          61.1326   84.3105    7.3422 H       1  UNL1        0.1437
     40 C          62.5023   85.4941    9.2758 C.1     1  UNL1        0.1061
     41 N          63.4516   84.4022    9.6716 N.1     1  UNL1       -0.1906
@<TRIPOS>BOND
     1    27    28    1
     2    28    29    1
     3    29    31    1
     4    31    32   ar
     5    32    33   ar
     6    33    34   ar
     7    34    35   ar
     8    35    36    1
     9    35    37   ar
    10    37    40    1
    11    40    41    3
    12    28     1    1
    13     1     2   ar
    14     2     3   ar
    15     3     4   ar
    16     4     5   ar
    17     5     6   ar
    18     6     7    1
    19     6     8   ar
    20     8     9   ar
    21     9    10   ar
    22    10    12    1
    23    12    13    2
    24    12    14   am
    25    14    15    1
    26    15    16    1
    27    16    17    1
    28    17    18    1
    29    18    19    1
    30    10    11   ar
    31    11    21    1
    32    21    22   ar
    33    22    23   ar
    34    23    24   ar
    35    24    25   ar
    36    25    26   ar
    37    37    31   ar
    38    11     1   ar
    39    26    21   ar
    40     9     3   ar
    41    19    14    1
    42    29    30    1
    43    36    38    1
    44    36    39    1
    45    17    20    1
@<TRIPOS>MOLECULE
*****
 41 45 0 0 0
SMALL
GASTEIGER

@<TRIPOS>ATOM
      1 C          63.1432   89.9884   12.0433 C.ar    1  UNL1        0.0782
      2 N          63.3782   90.8803   10.8604 N.ar    1  UNL1       -0.2480
      3 C          64.2938   92.0622   10.9823 C.ar    1  UNL1        0.0812
      4 C          64.5288   92.9540    9.7993 C.ar    1  UNL1        0.0214
      5 C          65.4443   94.1359    9.9213 C.ar    1  UNL1        0.0312
      6 C          66.1248   94.4260   11.2262 C.ar    1  UNL1        0.1402
      7 F          67.0404   95.6080   11.3481 F       1  UNL1       -0.2042
      8 C          65.8898   93.5342   12.4091 C.ar    1  UNL1        0.0313
      9 C          64.9743   92.3523   12.2872 C.ar    1  UNL1        0.0243
     10 C          64.7393   91.4604   13.4701 C.ar    1  UNL1        0.0577
     11 C          63.8238   90.2785   13.3482 C.ar    1  UNL1        0.0372
     12 C          65.4198   91.7505   14.7750 C.2     1  UNL1        0.2492
     13 O          64.6109   91.8692   16.0326 O.2     1  UNL1       -0.2699
     14 N          66.9093   91.9219   14.8223 N.am    1  UNL1       -0.2732
     15 C          67.7182   91.8032   13.5647 C.3     1  UNL1        0.1108
     16 C          69.2075   91.9746   13.6120 C.3     1  UNL1        0.0904
     17 N          69.8881   92.2647   14.9169 N.3     1  UNL1       -0.2946
     18 C          69.0792   92.3834   16.1745 C.3     1  UNL1        0.0904
     19 C          67.5898   92.2120   16.1272 C.3     1  UNL1        0.1108
     20 H          70.3831   93.1489   14.8006 H       1  UNL1        0.1233
     21 C          63.5887   89.3866   14.5312 C.ar    1  UNL1        0.0826
     22 C          64.3518   88.1022   14.6654 C.ar    1  UNL1        0.0192
     23 C          64.1168   87.2103   15.8483 C.ar    1  UNL1        0.0031
     24 C          63.1188   87.6029   16.8970 C.ar    1  UNL1        0.0207
     25 C          62.3557   88.8873   16.7627 C.ar    1  UNL1        0.0988
     26 N          62.5907   89.7792   15.5798 N.ar    1  UNL1       -0.2438
     27 C          60.7936   89.0059   11.5294 C.3     1  UNL1        0.0278
     28 C          62.2277   88.8065   11.9214 C.3     1  UNL1        0.1110
     29 N          62.7462   87.4251   12.1915 N.pl3   1  UNL1       -0.3141
     30 H          63.0300   87.1749   13.1004 H       1  UNL1        0.1485
     31 C          62.8323   86.4251   11.0769 C.ar    1  UNL1        0.1429
     32 N          62.5240   86.8424    9.6694 N.ar    1  UNL1       -0.2084
     33 C          62.6101   85.8424    8.5547 C.ar    1  UNL1        0.2012
     34 N          63.0046   84.4251    8.8474 N.ar    1  UNL1       -0.2087
     35 C          63.3130   84.0078   10.2548 C.ar    1  UNL1        0.1396
     36 N          63.7075   82.5905   10.5475 N.pl3   1  UNL1       -0.3420
     37 C          63.2269   85.0079   11.3696 C.ar    1  UNL1        0.1308
     38 H          63.7640   81.9342    9.8159 H       1  UNL1        0.1437
     39 H          63.9099   82.3167   11.4712 H       1  UNL1        0.1437
     40 C          63.5352   84.5906   12.7769 C.1     1  UNL1        0.1061
     41 N          63.8436   84.1733   14.1843 N.1     1  UNL1       -0.1906
@<TRIPOS>BOND
     1    27    28    1
     2    28    29    1
     3    29    31    1
     4    31    32   ar
     5    32    33   ar
     6    33    34   ar
     7    34    35   ar
     8    35    36    1
     9    35    37   ar
    10    37    40    1
    11    40    41    3
    12    28     1    1
    13     1     2   ar
    14     2     3   ar
    15     3     4   ar
    16     4     5   ar
    17     5     6   ar
    18     6     7    1
    19     6     8   ar
    20     8     9   ar
    21     9    10   ar
    22    10    12    1
    23    12    13    2
    24    12    14   am
    25    14    15    1
    26    15    16    1
    27    16    17    1
    28    17    18    1
    29    18    19    1
    30    10    11   ar
    31    11    21    1
    32    21    22   ar
    33    22    23   ar
    34    23    24   ar
    35    24    25   ar
    36    25    26   ar
    37    37    31   ar
    38    11     1   ar
    39    26    21   ar
    40     9     3   ar
    41    19    14    1
    42    29    30    1
    43    36    38    1
    44    36    39    1
    45    17    20    1
@<TRIPOS>MOLECULE
*****
 41 45 0 0 0
SMALL
GASTEIGER

@<TRIPOS>ATOM
      1 C          63.2386   89.0350   12.2098 C.ar    1  UNL1        0.0782
      2 N          63.3674   89.9211   11.0064 N.ar    1  UNL1       -0.2480
      3 C          64.0769   91.2381   11.1172 C.ar    1  UNL1        0.0812
      4 C          64.2057   92.1242    9.9138 C.ar    1  UNL1        0.0214
      5 C          64.9152   93.4411   10.0246 C.ar    1  UNL1        0.0312
      6 C          65.4959   93.8719   11.3389 C.ar    1  UNL1        0.1402
      7 F          66.2055   95.1889   11.4497 F       1  UNL1       -0.2042
      8 C          65.3671   92.9858   12.5422 C.ar    1  UNL1        0.0313
      9 C          64.6576   91.6689   12.4314 C.ar    1  UNL1        0.0243
     10 C          64.5288   90.7827   13.6348 C.ar    1  UNL1        0.0577
     11 C          63.8193   89.4658   13.5240 C.ar    1  UNL1        0.0372
     12 C          65.1095   91.2135   14.9491 C.2     1  UNL1        0.2492
     13 O          64.2428   91.2614   16.1723 O.2     1  UNL1       -0.2699
     14 N          66.5570   91.5965   15.0400 N.am    1  UNL1       -0.2732
     15 C          67.4237   91.5487   13.8167 C.3     1  UNL1        0.1108
     16 C          68.8711   91.9316   13.9076 C.3     1  UNL1        0.0904
     17 N          69.4518   92.3624   15.2218 N.3     1  UNL1       -0.2946
     18 C          68.5851   92.4103   16.4451 C.3     1  UNL1        0.0904
     19 C          67.1377   92.0273   16.3542 C.3     1  UNL1        0.1108
     20 H          69.8217   93.3033   15.0861 H       1  UNL1        0.1233
     21 C          63.6905   88.5796   14.7274 C.ar    1  UNL1        0.0826
     22 C          64.4400   87.2817   14.7867 C.ar    1  UNL1        0.0192
     23 C          64.3112   86.3955   15.9900 C.ar    1  UNL1        0.0031
     24 C          63.4329   86.8073   17.1341 C.ar    1  UNL1        0.0207
     25 C          62.6833   88.1052   17.0748 C.ar    1  UNL1        0.0988
     26 N          62.8121   88.9914   15.8715 N.ar    1  UNL1       -0.2438
     27 C          63.2680   86.4424   12.3759 C.3     1  UNL1        0.0278
     28 C          62.5291   87.7180   12.0990 C.3     1  UNL1        0.1110
     29 N          61.0807   87.6767   11.7112 N.pl3   1  UNL1       -0.3141
     30 H          60.3837   87.7482   12.4028 H       1  UNL1        0.1485
     31 C          60.6943   87.5266   10.2696 C.ar    1  UNL1        0.1429
     32 N          60.8775   86.2085    9.5774 N.ar    1  UNL1       -0.2084
     33 C          60.4910   86.0584    8.1358 C.ar    1  UNL1        0.2012
     34 N          59.9214   87.2263    7.3865 N.ar    1  UNL1       -0.2087
     35 C          59.7381   88.5443    8.0787 C.ar    1  UNL1        0.1396
     36 N          59.1685   89.7122    7.3294 N.pl3   1  UNL1       -0.3420
     37 C          60.1246   88.6945    9.5203 C.ar    1  UNL1        0.1308
     38 H          58.9148   89.6136    6.3832 H       1  UNL1        0.1437
     39 H          59.0482   90.5773    7.7837 H       1  UNL1        0.1437
     40 C          59.9414   90.0125   10.2125 C.1     1  UNL1        0.1061
     41 N          59.7581   91.3305   10.9047 N.1     1  UNL1       -0.1906
@<TRIPOS>BOND
     1    27    28    1
     2    28    29    1
     3    29    31    1
     4    31    32   ar
     5    32    33   ar
     6    33    34   ar
     7    34    35   ar
     8    35    36    1
     9    35    37   ar
    10    37    40    1
    11    40    41    3
    12    28     1    1
    13     1     2   ar
    14     2     3   ar
    15     3     4   ar
    16     4     5   ar
    17     5     6   ar
    18     6     7    1
    19     6     8   ar
    20     8     9   ar
    21     9    10   ar
    22    10    12    1
    23    12    13    2
    24    12    14   am
    25    14    15    1
    26    15    16    1
    27    16    17    1
    28    17    18    1
    29    18    19    1
    30    10    11   ar
    31    11    21    1
    32    21    22   ar
    33    22    23   ar
    34    23    24   ar
    35    24    25   ar
    36    25    26   ar
    37    37    31   ar
    38    11     1   ar
    39    26    21   ar
    40     9     3   ar
    41    19    14    1
    42    29    30    1
    43    36    38    1
    44    36    39    1
    45    17    20    1
@<TRIPOS>MOLECULE
*****
 41 45 0 0 0
SMALL
GASTEIGER

@<TRIPOS>ATOM
      1 C          63.2075   89.9222   11.9789 C.ar    1  UNL1        0.0782
      2 N          63.4577   90.8189   10.8028 N.ar    1  UNL1       -0.2480
      3 C          64.3366   92.0252   10.9529 C.ar    1  UNL1        0.0812
      4 C          64.5868   92.9219    9.7768 C.ar    1  UNL1        0.0214
      5 C          65.4657   94.1281    9.9269 C.ar    1  UNL1        0.0312
      6 C          66.0944   94.4376   11.2532 C.ar    1  UNL1        0.1402
      7 F          66.9733   95.6439   11.4033 F       1  UNL1       -0.2042
      8 C          65.8442   93.5409   12.4293 C.ar    1  UNL1        0.0313
      9 C          64.9653   92.3347   12.2791 C.ar    1  UNL1        0.0243
     10 C          64.7151   91.4379   13.4553 C.ar    1  UNL1        0.0577
     11 C          63.8362   90.2317   13.3051 C.ar    1  UNL1        0.0372
     12 C          65.3438   91.7474   14.7815 C.2     1  UNL1        0.2492
     13 O          64.4848   91.8971   16.0021 O.2     1  UNL1       -0.2699
     14 N          66.8315   91.9073   14.8872 N.am    1  UNL1       -0.2732
     15 C          67.6905   91.7576   13.6667 C.3     1  UNL1        0.1108
     16 C          69.1782   91.9175   13.7725 C.3     1  UNL1        0.0904
     17 N          69.8069   92.2270   15.0987 N.3     1  UNL1       -0.2946
     18 C          68.9479   92.3766   16.3192 C.3     1  UNL1        0.0904
     19 C          67.4602   92.2168   16.2135 C.3     1  UNL1        0.1108
     20 H          70.3143   93.1047   14.9864 H       1  UNL1        0.1233
     21 C          63.5859   89.3349   14.4813 C.ar    1  UNL1        0.0826
     22 C          64.4170   88.1012   14.6739 C.ar    1  UNL1        0.0192
     23 C          64.1668   87.2044   15.8500 C.ar    1  UNL1        0.0031
     24 C          63.0856   87.5414   16.8334 C.ar    1  UNL1        0.0207
     25 C          62.2545   88.7752   16.6408 C.ar    1  UNL1        0.0988
     26 N          62.5047   89.6720   15.4647 N.ar    1  UNL1       -0.2438
     27 C          60.9667   88.6974   12.4572 C.3     1  UNL1        0.0278
     28 C          62.3286   88.7159   11.8288 C.3     1  UNL1        0.1110
     29 N          62.8115   87.5282   11.0503 N.pl3   1  UNL1       -0.3141
     30 H          63.1116   87.6389   10.1192 H       1  UNL1        0.1485
     31 C          62.8373   86.1720   11.6904 C.ar    1  UNL1        0.1429
     32 N          62.8032   86.0472   13.1849 N.ar    1  UNL1       -0.2084
     33 C          62.8289   84.6909   13.8250 C.ar    1  UNL1        0.2012
     34 N          62.8888   83.4594   12.9708 N.ar    1  UNL1       -0.2087
     35 C          62.9230   83.5841   11.4764 C.ar    1  UNL1        0.1396
     36 N          62.9828   82.3526   10.6222 N.pl3   1  UNL1       -0.3420
     37 C          62.8972   84.9404   10.8362 C.ar    1  UNL1        0.1308
     38 H          62.9998   81.4624   11.0423 H       1  UNL1        0.1437
     39 H          63.0052   82.4345    9.6413 H       1  UNL1        0.1437
     40 C          62.9313   85.0652    9.3418 C.1     1  UNL1        0.1061
     41 N          62.9654   85.1899    7.8474 N.1     1  UNL1       -0.1906
@<TRIPOS>BOND
     1    27    28    1
     2    28    29    1
     3    29    31    1
     4    31    32   ar
     5    32    33   ar
     6    33    34   ar
     7    34    35   ar
     8    35    36    1
     9    35    37   ar
    10    37    40    1
    11    40    41    3
    12    28     1    1
    13     1     2   ar
    14     2     3   ar
    15     3     4   ar
    16     4     5   ar
    17     5     6   ar
    18     6     7    1
    19     6     8   ar
    20     8     9   ar
    21     9    10   ar
    22    10    12    1
    23    12    13    2
    24    12    14   am
    25    14    15    1
    26    15    16    1
    27    16    17    1
    28    17    18    1
    29    18    19    1
    30    10    11   ar
    31    11    21    1
    32    21    22   ar
    33    22    23   ar
    34    23    24   ar
    35    24    25   ar
    36    25    26   ar
    37    37    31   ar
    38    11     1   ar
    39    26    21   ar
    40     9     3   ar
    41    19    14    1
    42    29    30    1
    43    36    38    1
    44    36    39    1
    45    17    20    1
@<TRIPOS>MOLECULE
*****
 41 45 0 0 0
SMALL
GASTEIGER

@<TRIPOS>ATOM
      1 C          63.5647   87.5479   13.3347 C.ar    1  UNL1        0.0782
      2 N          64.1889   86.2792   13.8355 N.ar    1  UNL1       -0.2480
      3 C          63.8371   84.9677   13.1980 C.ar    1  UNL1        0.0812
      4 C          64.4613   83.6990   13.6988 C.ar    1  UNL1        0.0214
      5 C          64.1094   82.3876   13.0614 C.ar    1  UNL1        0.0312
      6 C          63.1334   82.3449   11.9231 C.ar    1  UNL1        0.1402
      7 F          62.7816   81.0334   11.2857 F       1  UNL1       -0.2042
      8 C          62.5092   83.6135   11.4224 C.ar    1  UNL1        0.0313
      9 C          62.8610   84.9249   12.0598 C.ar    1  UNL1        0.0243
     10 C          62.2368   86.1937   11.5590 C.ar    1  UNL1        0.0577
     11 C          62.5886   87.5051   12.1965 C.ar    1  UNL1        0.0372
     12 C          61.2608   86.1509   10.4208 C.2     1  UNL1        0.2492
     13 O          59.8483   86.6120   10.6263 O.2     1  UNL1       -0.2699
     14 N          61.6973   85.6471    9.0770 N.am    1  UNL1       -0.2732
     15 C          63.1098   85.1861    8.8715 C.3     1  UNL1        0.1108
     16 C          63.5462   84.6823    7.5278 C.3     1  UNL1        0.0904
     17 N          62.5702   84.6395    6.3896 N.3     1  UNL1       -0.2946
     18 C          61.1577   85.1006    6.5951 C.3     1  UNL1        0.0904
     19 C          60.7213   85.6044    7.9388 C.3     1  UNL1        0.1108
     20 H          62.5210   83.6688    6.0802 H       1  UNL1        0.1233
     21 C          61.9644   88.7739   11.6957 C.ar    1  UNL1        0.0826
     22 C          62.5823   89.5100   10.5441 C.ar    1  UNL1        0.0192
     23 C          61.9582   90.7787   10.0433 C.ar    1  UNL1        0.0031
     24 C          60.7161   91.3112   10.6941 C.ar    1  UNL1        0.0207
     25 C          60.0982   90.5751   11.8458 C.ar    1  UNL1        0.0988
     26 N          60.7223   89.3064   12.3465 N.ar    1  UNL1       -0.2438
     27 C          63.8503   89.0103   15.4631 C.3     1  UNL1        0.0278
     28 C          63.9165   88.8594   13.9721 C.3     1  UNL1        0.1110
     29 N          64.3344   90.0199   13.1187 N.pl3   1  UNL1       -0.3141
     30 H          64.1011   90.0369   12.1624 H       1  UNL1        0.1485
     31 C          65.1079   91.1545   13.7222 C.ar    1  UNL1        0.1429
     32 N          65.4872   91.1157   15.1730 N.ar    1  UNL1       -0.2084
     33 C          66.2607   92.2503   15.7766 C.ar    1  UNL1        0.2012
     34 N          66.6548   93.4238   14.9295 N.ar    1  UNL1       -0.2087
     35 C          66.2756   93.4626   13.4788 C.ar    1  UNL1        0.1396
     36 N          66.6698   94.6361   12.6316 N.pl3   1  UNL1       -0.3420
     37 C          65.5021   92.3280   12.8751 C.ar    1  UNL1        0.1308
     38 H          67.1774   95.3808   13.0278 H       1  UNL1        0.1437
     39 H          66.4208   94.6615   11.6795 H       1  UNL1        0.1437
     40 C          65.1228   92.3668   11.4244 C.1     1  UNL1        0.1061
     41 N          64.7435   92.4056    9.9737 N.1     1  UNL1       -0.1906
@<TRIPOS>BOND
     1    27    28    1
     2    28    29    1
     3    29    31    1
     4    31    32   ar
     5    32    33   ar
     6    33    34   ar
     7    34    35   ar
     8    35    36    1
     9    35    37   ar
    10    37    40    1
    11    40    41    3
    12    28     1    1
    13     1     2   ar
    14     2     3   ar
    15     3     4   ar
    16     4     5   ar
    17     5     6   ar
    18     6     7    1
    19     6     8   ar
    20     8     9   ar
    21     9    10   ar
    22    10    12    1
    23    12    13    2
    24    12    14   am
    25    14    15    1
    26    15    16    1
    27    16    17    1
    28    17    18    1
    29    18    19    1
    30    10    11   ar
    31    11    21    1
    32    21    22   ar
    33    22    23   ar
    34    23    24   ar
    35    24    25   ar
    36    25    26   ar
    37    37    31   ar
    38    11     1   ar
    39    26    21   ar
    40     9     3   ar
    41    19    14    1
    42    29    30    1
    43    36    38    1
    44    36    39    1
    45    17    20    1
@<TRIPOS>MOLECULE
*****
 41 45 0 0 0
SMALL
GASTEIGER

@<TRIPOS>ATOM
      1 C          62.6544   87.3277   11.6050 C.ar    1  UNL1        0.0782
      2 N          63.1679   87.5335   12.9992 N.ar    1  UNL1       -0.2480
      3 C          63.7164   86.3729   13.7754 C.ar    1  UNL1        0.0812
      4 C          64.2299   86.5787   15.1696 C.ar    1  UNL1        0.0214
      5 C          64.7783   85.4182   15.9457 C.ar    1  UNL1        0.0312
      6 C          64.8132   84.0519   15.3277 C.ar    1  UNL1        0.1402
      7 F          65.3617   82.8914   16.1039 F       1  UNL1       -0.2042
      8 C          64.2997   83.8461   13.9334 C.ar    1  UNL1        0.0313
      9 C          63.7513   85.0066   13.1573 C.ar    1  UNL1        0.0243
     10 C          63.2377   84.8009   11.7630 C.ar    1  UNL1        0.0577
     11 C          62.6893   85.9614   10.9869 C.ar    1  UNL1        0.0372
     12 C          63.2726   83.4346   11.1449 C.2     1  UNL1        0.2492
     13 O          63.8103   83.2530    9.7565 O.2     1  UNL1       -0.2699
     14 N          62.7696   82.2498   11.9154 N.am    1  UNL1       -0.2732
     15 C          62.2318   82.4314   13.3038 C.3     1  UNL1        0.1108
     16 C          61.7289   81.2467   14.0741 C.3     1  UNL1        0.0904
     17 N          61.7638   79.8804   13.4560 N.3     1  UNL1       -0.2946
     18 C          62.3016   79.6988   12.0676 C.3     1  UNL1        0.0904
     19 C          62.8045   80.8835   11.2973 C.3     1  UNL1        0.1108
     20 H          60.8035   79.5366   13.4472 H       1  UNL1        0.1233
     21 C          62.1757   85.7556    9.5926 C.ar    1  UNL1        0.0826
     22 C          63.1265   85.4021    8.4877 C.ar    1  UNL1        0.0192
     23 C          62.6130   85.1963    7.0934 C.ar    1  UNL1        0.0031
     24 C          61.1487   85.3441    6.8041 C.ar    1  UNL1        0.0207
     25 C          60.1978   85.6977    7.9091 C.ar    1  UNL1        0.0988
     26 N          60.7113   85.9034    9.3033 N.ar    1  UNL1       -0.2438
     27 C          61.7026   88.3082    9.3953 C.3     1  UNL1        0.0278
     28 C          62.1059   88.4882   10.8288 C.3     1  UNL1        0.1110
     29 N          61.9608   89.8287   11.4861 N.pl3   1  UNL1       -0.3141
     30 H          61.0906   90.1046   11.8545 H       1  UNL1        0.1485
     31 C          63.1416   90.7487   11.5819 C.ar    1  UNL1        0.1429
     32 N          63.6929   91.3929   10.3445 N.ar    1  UNL1       -0.2084
     33 C          64.8737   92.3129   10.4404 C.ar    1  UNL1        0.2012
     34 N          65.5033   92.5888   11.7736 N.ar    1  UNL1       -0.2087
     35 C          64.9521   91.9446   13.0110 C.ar    1  UNL1        0.1396
     36 N          65.5816   92.2204   14.3443 N.pl3   1  UNL1       -0.3420
     37 C          63.7712   91.0245   12.9152 C.ar    1  UNL1        0.1308
     38 H          66.3566   92.8243   14.4072 H       1  UNL1        0.1437
     39 H          65.2198   91.7976   15.1564 H       1  UNL1        0.1437
     40 C          63.2200   90.3804   14.1526 C.1     1  UNL1        0.1061
     41 N          62.6687   89.7362   15.3899 N.1     1  UNL1       -0.1906
@<TRIPOS>BOND
     1    27    28    1
     2    28    29    1
     3    29    31    1
     4    31    32   ar
     5    32    33   ar
     6    33    34   ar
     7    34    35   ar
     8    35    36    1
     9    35    37   ar
    10    37    40    1
    11    40    41    3
    12    28     1    1
    13     1     2   ar
    14     2     3   ar
    15     3     4   ar
    16     4     5   ar
    17     5     6   ar
    18     6     7    1
    19     6     8   ar
    20     8     9   ar
    21     9    10   ar
    22    10    12    1
    23    12    13    2
    24    12    14   am
    25    14    15    1
    26    15    16    1
    27    16    17    1
    28    17    18    1
    29    18    19    1
    30    10    11   ar
    31    11    21    1
    32    21    22   ar
    33    22    23   ar
    34    23    24   ar
    35    24    25   ar
    36    25    26   ar
    37    37    31   ar
    38    11     1   ar
    39    26    21   ar
    40     9     3   ar
    41    19    14    1
    42    29    30    1
    43    36    38    1
    44    36    39    1
    45    17    20    1
@<TRIPOS>MOLECULE
*****
 41 45 0 0 0
SMALL
GASTEIGER

@<TRIPOS>ATOM
      1 C          63.5548   87.4972   13.1690 C.ar    1  UNL1        0.0782
      2 N          64.1664   86.2221   13.6688 N.ar    1  UNL1       -0.2480
      3 C          63.7988   84.9142   13.0329 C.ar    1  UNL1        0.0812
      4 C          64.4105   83.6390   13.5327 C.ar    1  UNL1        0.0214
      5 C          64.0428   82.3312   12.8968 C.ar    1  UNL1        0.0312
      6 C          63.0634   82.2986   11.7611 C.ar    1  UNL1        0.1402
      7 F          62.6957   80.9906   11.1253 F       1  UNL1       -0.2042
      8 C          62.4517   83.5737   11.2614 C.ar    1  UNL1        0.0313
      9 C          62.8194   84.8815   11.8972 C.ar    1  UNL1        0.0243
     10 C          62.2077   86.1567   11.3975 C.ar    1  UNL1        0.0577
     11 C          62.5754   87.4645   12.0333 C.ar    1  UNL1        0.0372
     12 C          61.2283   86.1240   10.2618 C.2     1  UNL1        0.2492
     13 O          59.8179   86.5883   10.4742 O.2     1  UNL1       -0.2699
     14 N          61.6594   85.6271    8.9137 N.am    1  UNL1       -0.2732
     15 C          63.0698   85.1629    8.7013 C.3     1  UNL1        0.1108
     16 C          63.5008   84.6659    7.3533 C.3     1  UNL1        0.0904
     17 N          62.5214   84.6333    6.2176 N.3     1  UNL1       -0.2946
     18 C          61.1110   85.0975    6.4300 C.3     1  UNL1        0.0904
     19 C          60.6800   85.5944    7.7780 C.3     1  UNL1        0.1108
     20 H          62.4683   83.6646    5.9024 H       1  UNL1        0.1233
     21 C          61.9637   88.7397   11.5335 C.ar    1  UNL1        0.0826
     22 C          62.5538   89.4393   10.3451 C.ar    1  UNL1        0.0192
     23 C          61.9422   90.7144    9.8453 C.ar    1  UNL1        0.0031
     24 C          60.7404   91.2901   10.5340 C.ar    1  UNL1        0.0207
     25 C          60.1502   90.5905   11.7224 C.ar    1  UNL1        0.0988
     26 N          60.7619   89.3154   12.2222 N.ar    1  UNL1       -0.2438
     27 C          64.6820   88.8229   15.0982 C.3     1  UNL1        0.0278
     28 C          63.9224   88.8051   13.8049 C.3     1  UNL1        0.1110
     29 N          63.5305   90.0951   13.1474 N.pl3   1  UNL1       -0.3141
     30 H          62.5911   90.2567   12.9013 H       1  UNL1        0.1485
     31 C          64.5700   91.1390   12.8650 C.ar    1  UNL1        0.1429
     32 N          65.1198   91.2940   11.4779 N.ar    1  UNL1       -0.2084
     33 C          66.1592   92.3378   11.1955 C.ar    1  UNL1        0.2012
     34 N          66.6490   93.2267   12.3000 N.ar    1  UNL1       -0.2087
     35 C          66.0993   93.0717   13.6870 C.ar    1  UNL1        0.1396
     36 N          66.5891   93.9606   14.7915 N.pl3   1  UNL1       -0.3420
     37 C          65.0598   92.0278   13.9695 C.ar    1  UNL1        0.1308
     38 H          67.2714   94.6457   14.6061 H       1  UNL1        0.1437
     39 H          66.2283   93.8589   15.7019 H       1  UNL1        0.1437
     40 C          64.5101   91.8729   15.3565 C.1     1  UNL1        0.1061
     41 N          63.9604   91.7179   16.7435 N.1     1  UNL1       -0.1906
@<TRIPOS>BOND
     1    27    28    1
     2    28    29    1
     3    29    31    1
     4    31    32   ar
     5    32    33   ar
     6    33    34   ar
     7    34    35   ar
     8    35    36    1
     9    35    37   ar
    10    37    40    1
    11    40    41    3
    12    28     1    1
    13     1     2   ar
    14     2     3   ar
    15     3     4   ar
    16     4     5   ar
    17     5     6   ar
    18     6     7    1
    19     6     8   ar
    20     8     9   ar
    21     9    10   ar
    22    10    12    1
    23    12    13    2
    24    12    14   am
    25    14    15    1
    26    15    16    1
    27    16    17    1
    28    17    18    1
    29    18    19    1
    30    10    11   ar
    31    11    21    1
    32    21    22   ar
    33    22    23   ar
    34    23    24   ar
    35    24    25   ar
    36    25    26   ar
    37    37    31   ar
    38    11     1   ar
    39    26    21   ar
    40     9     3   ar
    41    19    14    1
    42    29    30    1
    43    36    38    1
    44    36    39    1
    45    17    20    1
