@<TRIPOS>MOLECULE
*****
 28 31 0 0 0
SMALL
GASTEIGER

@<TRIPOS>ATOM
      1 C          63.7348   86.6748   13.5338 C.ar    1  UNL1        0.1515
      2 N          64.3350   87.5913   14.5585 N.ar    1  UNL1       -0.1596
      3 N          64.1503   89.0021   14.0835 N.ar    1  UNL1       -0.2112
      4 C          63.4360   88.9575   12.7651 C.ar    1  UNL1        0.0596
      5 C          63.1793   87.5192   12.4255 C.ar    1  UNL1        0.0153
      6 C          62.4650   87.4747   11.1072 C.3     1  UNL1        0.0297
      7 C          62.2803   88.8854   10.6321 C.3     1  UNL1        0.0104
      8 C          62.2433   90.3703   10.4236 C.3     1  UNL1        0.0066
      9 C          62.8804   89.8019   11.6568 C.3     1  UNL1        0.0405
     10 C          64.6007   90.2401   14.8006 C.ar    1  UNL1        0.2362
     11 C          65.8428   90.9542   14.3564 C.ar    1  UNL1        0.3408
     12 N          66.2933   92.1922   15.0735 N.ar    1  UNL1       -0.1478
     13 O          67.5354   92.9063   14.6292 O.co2   1  UNL1       -0.6186
     14 C          65.5018   92.7162   16.2349 C.ar    1  UNL1        0.3227
     15 C          64.2597   92.0021   16.6792 C.ar    1  UNL1        0.1776
     16 N          63.8092   90.7641   15.9621 N.ar    1  UNL1       -0.2133
     17 N          62.6167   84.4194   12.8916 N.am    1  UNL1       -0.2987
     18 C          63.6969   85.1770   13.6049 C.2     1  UNL1        0.2651
     19 O          64.7394   84.4369   14.3896 O.2     1  UNL1       -0.2684
     20 H          61.9326   84.9052   12.3766 H       1  UNL1        0.1498
     21 CA         62.5788   82.9216   12.9627 C.3     1  UNL1        0.1010
     22 C          63.2533   83.3611   11.0000 C.3     1  UNL1        0.0017
     23 C          62.9784   82.1037   11.7704 C.3     1  UNL1        0.0189
     24 C          62.7036   80.8463   12.5408 C.3     1  UNL1        0.0017
     25 C          63.3780   81.2858   10.5782 C.3     1  UNL1        0.0017
     26 C          62.1413   82.2416   14.2261 C.3     1  UNL1        0.1565
     27 O          62.7607   82.6250   15.5374 O.3     1  UNL1       -0.3802
     28 H          63.6987   82.3778   15.5365 H       1  UNL1        0.2105
@<TRIPOS>UNITY_ATOM_ATTR
12 1
charge 1
13 1
charge -1
@<TRIPOS>BOND
     1    22    23    1
     2    23    24    1
     3    23    25    1
     4    23    21    1
     5    21    26    1
     6    26    27    1
     7    21    17    1
     8    17    18   am
     9    18    19    2
    10    18     1    1
    11     1     2   ar
    12     2     3   ar
    13     3    10    1
    14    10    11   ar
    15    11    12   ar
    16    12    13    1
    17    12    14   ar
    18    14    15   ar
    19    15    16   ar
    20     3     4   ar
    21     4     5   ar
    22     5     6    1
    23     7     6    1
    24     7     8    1
    25     9     8    1
    26     5     1   ar
    27     9     7    1
    28    16    10   ar
    29     9     4    1
    30    27    28    1
    31    17    20    1
@<TRIPOS>MOLECULE
*****
 28 31 0 0 0
SMALL
GASTEIGER

@<TRIPOS>ATOM
      1 C          63.8154   90.9885   12.1552 C.ar    1  UNL1        0.1515
      2 N          64.2210   91.9528   11.0802 N.ar    1  UNL1       -0.1596
      3 N          65.2820   92.8527   11.6409 N.ar    1  UNL1       -0.2112
      4 C          65.5321   92.4446   13.0626 C.ar    1  UNL1        0.0596
      5 C          64.6257   91.2925   13.3803 C.ar    1  UNL1        0.0153
      6 C          64.8759   90.8844   14.8019 C.3     1  UNL1        0.0297
      7 C          65.9369   91.7843   15.3627 C.3     1  UNL1        0.0104
      8 C          66.9916   92.8145   15.6383 C.3     1  UNL1        0.0066
      9 C          66.3425   92.7485   14.2877 C.3     1  UNL1        0.0405
     10 C          65.9718   93.9654   10.9088 C.ar    1  UNL1        0.2362
     11 C          66.6686   93.6894    9.6094 C.ar    1  UNL1        0.3408
     12 N          67.3584   94.8020    8.8772 N.ar    1  UNL1       -0.1478
     13 O          68.0552   94.5260    7.5778 O.co2   1  UNL1       -0.6186
     14 C          67.3515   96.1906    9.4443 C.ar    1  UNL1        0.3227
     15 C          66.6548   96.4666   10.7436 C.ar    1  UNL1        0.1776
     16 N          65.9649   95.3540   11.4759 N.ar    1  UNL1       -0.2133
     17 N          62.6917   89.1017   10.7669 N.am    1  UNL1       -0.2987
     18 C          62.7811   89.9097   12.0275 C.2     1  UNL1        0.2651
     19 O          61.8361   89.6389   13.1605 O.2     1  UNL1       -0.2684
     20 H          63.3120   89.2795   10.0233 H       1  UNL1        0.1498
     21 CA         61.6574   88.0229   10.6392 C.3     1  UNL1        0.1010
     22 C          61.5952   86.7397    8.9512 C.3     1  UNL1        0.0017
     23 C          62.0779   86.6093   10.3654 C.3     1  UNL1        0.0189
     24 C          62.5606   86.4789   11.7796 C.3     1  UNL1        0.0017
     25 C          62.4984   85.1957   10.0915 C.3     1  UNL1        0.0017
     26 C          60.2026   88.3577   10.7854 C.3     1  UNL1        0.1565
     27 O          59.5270   88.2018   12.1157 O.3     1  UNL1       -0.3802
     28 H          59.5027   87.2629   12.3579 H       1  UNL1        0.2105
@<TRIPOS>UNITY_ATOM_ATTR
12 1
charge 1
13 1
charge -1
@<TRIPOS>BOND
     1    22    23    1
     2    23    24    1
     3    23    25    1
     4    23    21    1
     5    21    26    1
     6    26    27    1
     7    21    17    1
     8    17    18   am
     9    18    19    2
    10    18     1    1
    11     1     2   ar
    12     2     3   ar
    13     3    10    1
    14    10    11   ar
    15    11    12   ar
    16    12    13    1
    17    12    14   ar
    18    14    15   ar
    19    15    16   ar
    20     3     4   ar
    21     4     5   ar
    22     5     6    1
    23     7     6    1
    24     7     8    1
    25     9     8    1
    26     5     1   ar
    27     9     7    1
    28    16    10   ar
    29     9     4    1
    30    27    28    1
    31    17    20    1
@<TRIPOS>MOLECULE
*****
 28 31 0 0 0
SMALL
GASTEIGER

@<TRIPOS>ATOM
      1 C          63.6320   89.0498   13.0414 C.ar    1  UNL1        0.1515
      2 N          63.7834   87.6764   13.6252 N.ar    1  UNL1       -0.1596
      3 N          63.1158   86.7030   12.6996 N.ar    1  UNL1       -0.2112
      4 C          62.5517   87.4748   11.5437 C.ar    1  UNL1        0.0596
      5 C          62.8707   88.9252   11.7550 C.ar    1  UNL1        0.0153
      6 C          62.3066   89.6970   10.5991 C.3     1  UNL1        0.0297
      7 C          61.6390   88.7237    9.6734 C.3     1  UNL1        0.0104
      8 C          61.0642   87.5371    8.9582 C.3     1  UNL1        0.0066
      9 C          61.7904   87.3503   10.2572 C.3     1  UNL1        0.0405
     10 C          63.0276   85.2185   12.8954 C.ar    1  UNL1        0.2362
     11 C          63.2879   84.2933   11.7436 C.ar    1  UNL1        0.3408
     12 N          63.1998   82.8088   11.9393 N.ar    1  UNL1       -0.1478
     13 O          63.4601   81.8837   10.7875 O.co2   1  UNL1       -0.6186
     14 C          62.8514   82.2493   13.2867 C.ar    1  UNL1        0.3227
     15 C          62.5911   83.1743   14.4384 C.ar    1  UNL1        0.1776
     16 N          62.6792   84.6589   14.2428 N.ar    1  UNL1       -0.2133
     17 N          65.3366   90.2936   14.5570 N.am    1  UNL1       -0.2987
     18 C          64.1507   90.3240   13.6391 C.2     1  UNL1        0.2651
     19 O          63.4833   91.6287   13.3188 O.2     1  UNL1       -0.2684
     20 H          65.7745   89.4373   14.7672 H       1  UNL1        0.1498
     21 CA         65.8553   91.5678   15.1547 C.3     1  UNL1        0.1010
     22 C          66.9715   91.7640   13.3614 C.3     1  UNL1        0.0017
     23 C          67.2327   92.0516   14.8103 C.3     1  UNL1        0.0189
     24 C          67.4940   92.3391   16.2591 C.3     1  UNL1        0.0017
     25 C          68.6102   92.5353   14.4659 C.3     1  UNL1        0.0017
     26 C          64.9965   92.3583   16.0968 C.3     1  UNL1        0.1565
     27 O          63.6363   91.8520   16.4760 O.3     1  UNL1       -0.3802
     28 H          63.0620   91.8517   15.6943 H       1  UNL1        0.2105
@<TRIPOS>UNITY_ATOM_ATTR
12 1
charge 1
13 1
charge -1
@<TRIPOS>BOND
     1    22    23    1
     2    23    24    1
     3    23    25    1
     4    23    21    1
     5    21    26    1
     6    26    27    1
     7    21    17    1
     8    17    18   am
     9    18    19    2
    10    18     1    1
    11     1     2   ar
    12     2     3   ar
    13     3    10    1
    14    10    11   ar
    15    11    12   ar
    16    12    13    1
    17    12    14   ar
    18    14    15   ar
    19    15    16   ar
    20     3     4   ar
    21     4     5   ar
    22     5     6    1
    23     7     6    1
    24     7     8    1
    25     9     8    1
    26     5     1   ar
    27     9     7    1
    28    16    10   ar
    29     9     4    1
    30    27    28    1
    31    17    20    1
@<TRIPOS>MOLECULE
*****
 28 31 0 0 0
SMALL
GASTEIGER

@<TRIPOS>ATOM
      1 C          63.1820   86.6377   12.4214 C.ar    1  UNL1        0.1515
      2 N          63.7245   87.3316   13.6355 N.ar    1  UNL1       -0.1596
      3 N          63.6062   88.8107   13.4158 N.ar    1  UNL1       -0.2112
      4 C          62.9905   89.0309   12.0657 C.ar    1  UNL1        0.0596
      5 C          62.7284   87.6879   11.4512 C.ar    1  UNL1        0.0153
      6 C          62.1127   87.9081   10.1012 C.3     1  UNL1        0.0297
      7 C          61.9944   89.3872    9.8813 C.3     1  UNL1        0.0104
      8 C          62.0053   90.8857    9.9466 C.3     1  UNL1        0.0066
      9 C          62.5369   90.0812   11.0955 C.3     1  UNL1        0.0405
     10 C          64.0292   89.8816   14.3770 C.ar    1  UNL1        0.2362
     11 C          65.1999   90.7615   14.0520 C.ar    1  UNL1        0.3408
     12 N          65.6229   91.8324   15.0132 N.ar    1  UNL1       -0.1478
     13 O          66.7936   92.7122   14.6882 O.co2   1  UNL1       -0.6186
     14 C          64.8754   92.0236   16.2995 C.ar    1  UNL1        0.3227
     15 C          63.7048   91.1439   16.6246 C.ar    1  UNL1        0.1776
     16 N          63.2816   90.0729   15.6634 N.ar    1  UNL1       -0.2133
     17 N          63.5642   84.2212   13.2954 N.am    1  UNL1       -0.2987
     18 C          63.1063   85.1540   12.2138 C.2     1  UNL1        0.2651
     19 O          62.5728   84.6034   10.9246 O.2     1  UNL1       -0.2684
     20 H          63.9143   84.5826   14.1416 H       1  UNL1        0.1498
     21 CA         63.4885   82.7375   13.0879 C.3     1  UNL1        0.1010
     22 C          62.3875   81.0254   12.4908 C.3     1  UNL1        0.0017
     23 C          62.3457   81.9566   13.6661 C.3     1  UNL1        0.0189
     24 C          62.3040   82.8878   14.8413 C.3     1  UNL1        0.0017
     25 C          61.2030   81.1757   14.2442 C.3     1  UNL1        0.0017
     26 C          64.5557   82.0348   12.3022 C.3     1  UNL1        0.1565
     27 O          65.0463   82.6216   11.0118 O.3     1  UNL1       -0.3802
     28 H          64.3296   82.6103   10.3583 H       1  UNL1        0.2105
@<TRIPOS>UNITY_ATOM_ATTR
12 1
charge 1
13 1
charge -1
@<TRIPOS>BOND
     1    22    23    1
     2    23    24    1
     3    23    25    1
     4    23    21    1
     5    21    26    1
     6    26    27    1
     7    21    17    1
     8    17    18   am
     9    18    19    2
    10    18     1    1
    11     1     2   ar
    12     2     3   ar
    13     3    10    1
    14    10    11   ar
    15    11    12   ar
    16    12    13    1
    17    12    14   ar
    18    14    15   ar
    19    15    16   ar
    20     3     4   ar
    21     4     5   ar
    22     5     6    1
    23     7     6    1
    24     7     8    1
    25     9     8    1
    26     5     1   ar
    27     9     7    1
    28    16    10   ar
    29     9     4    1
    30    27    28    1
    31    17    20    1
@<TRIPOS>MOLECULE
*****
 28 31 0 0 0
SMALL
GASTEIGER

@<TRIPOS>ATOM
      1 C          63.5613   89.1714   12.8953 C.ar    1  UNL1        0.1515
      2 N          63.8133   87.7800   13.3958 N.ar    1  UNL1       -0.1596
      3 N          63.1198   86.8225   12.4724 N.ar    1  UNL1       -0.2112
      4 C          62.4393   87.6224   11.4013 C.ar    1  UNL1        0.0596
      5 C          62.7122   89.0740   11.6627 C.ar    1  UNL1        0.0153
      6 C          62.0317   89.8737   10.5916 C.3     1  UNL1        0.0297
      7 C          61.3382   88.9164    9.6682 C.3     1  UNL1        0.0104
      8 C          60.7618   87.7405    8.9368 C.3     1  UNL1        0.0066
      9 C          61.5901   87.5249   10.1686 C.3     1  UNL1        0.0405
     10 C          63.1087   85.3279   12.5980 C.ar    1  UNL1        0.2362
     11 C          63.4367   84.6833   13.9122 C.ar    1  UNL1        0.3408
     12 N          63.4257   83.1887   14.0379 N.ar    1  UNL1       -0.1478
     13 O          63.7537   82.5440   15.3520 O.co2   1  UNL1       -0.6186
     14 C          63.0867   82.3385   12.8495 C.ar    1  UNL1        0.3227
     15 C          62.7587   82.9831   11.5353 C.ar    1  UNL1        0.1776
     16 N          62.7697   84.4778   11.4096 N.ar    1  UNL1       -0.2133
     17 N          65.3718   91.0271   13.0640 N.am    1  UNL1       -0.2987
     18 C          64.0693   90.4379   13.5182 C.2     1  UNL1        0.2651
     19 O          63.2747   91.1151   14.5953 O.2     1  UNL1       -0.2684
     20 H          65.8932   90.5825   12.3571 H       1  UNL1        0.1498
     21 CA         65.8798   92.2935   13.6868 C.3     1  UNL1        0.1010
     22 C          65.4394   92.8260   11.6812 C.3     1  UNL1        0.0017
     23 C          66.1116   93.5072   12.8363 C.3     1  UNL1        0.0189
     24 C          66.7837   94.1883   13.9914 C.3     1  UNL1        0.0017
     25 C          66.3433   94.7208   11.9857 C.3     1  UNL1        0.0017
     26 C          66.1560   92.3464   15.1602 C.3     1  UNL1        0.1565
     27 O          65.0412   92.6315   16.1226 O.3     1  UNL1       -0.3802
     28 H          64.7190   93.5361   15.9853 H       1  UNL1        0.2105
@<TRIPOS>UNITY_ATOM_ATTR
12 1
charge 1
13 1
charge -1
@<TRIPOS>BOND
     1    22    23    1
     2    23    24    1
     3    23    25    1
     4    23    21    1
     5    21    26    1
     6    26    27    1
     7    21    17    1
     8    17    18   am
     9    18    19    2
    10    18     1    1
    11     1     2   ar
    12     2     3   ar
    13     3    10    1
    14    10    11   ar
    15    11    12   ar
    16    12    13    1
    17    12    14   ar
    18    14    15   ar
    19    15    16   ar
    20     3     4   ar
    21     4     5   ar
    22     5     6    1
    23     7     6    1
    24     7     8    1
    25     9     8    1
    26     5     1   ar
    27     9     7    1
    28    16    10   ar
    29     9     4    1
    30    27    28    1
    31    17    20    1
@<TRIPOS>MOLECULE
*****
 28 31 0 0 0
SMALL
GASTEIGER

@<TRIPOS>ATOM
      1 C          64.8059   92.2691   11.4793 C.ar    1  UNL1        0.1515
      2 N          63.8653   91.5680   10.5446 N.ar    1  UNL1       -0.1596
      3 N          63.1905   90.4659   11.3063 N.ar    1  UNL1       -0.2112
      4 C          63.7142   90.4859   12.7119 C.ar    1  UNL1        0.0596
      5 C          64.7125   91.6003   12.8187 C.ar    1  UNL1        0.0153
      6 C          65.2361   91.6202   14.2242 C.3     1  UNL1        0.0297
      7 C          64.5614   90.5182   14.9860 C.3     1  UNL1        0.0104
      8 C          63.7414   89.3614   15.4752 C.3     1  UNL1        0.0066
      9 C          63.6208   89.8171   14.0513 C.3     1  UNL1        0.0405
     10 C          62.1712   89.5114   10.7588 C.ar    1  UNL1        0.2362
     11 C          62.2842   88.0444   11.0511 C.ar    1  UNL1        0.3408
     12 N          61.2649   87.0899   10.5037 N.ar    1  UNL1       -0.1478
     13 O          61.3779   85.6229   10.7960 O.co2   1  UNL1       -0.6186
     14 C          60.1325   87.6022    9.6639 C.ar    1  UNL1        0.3227
     15 C          60.0195   89.0690    9.3715 C.ar    1  UNL1        0.1776
     16 N          61.0388   90.0236    9.9190 N.ar    1  UNL1       -0.2133
     17 N          65.1077   94.6297   10.4372 N.am    1  UNL1       -0.2987
     18 C          65.6854   93.4343   11.1351 C.2     1  UNL1        0.2651
     19 O          67.1428   93.4041   11.4888 O.2     1  UNL1       -0.2684
     20 H          64.1511   94.6495   10.2050 H       1  UNL1        0.1498
     21 CA         65.9872   95.7949   10.0929 C.3     1  UNL1        0.1010
     22 C          67.5970   95.3236    8.7943 C.3     1  UNL1        0.0017
     23 C          66.3146   96.0898    8.6591 C.3     1  UNL1        0.0189
     24 C          65.0321   96.8560    8.5239 C.3     1  UNL1        0.0017
     25 C          66.6419   96.3846    7.2252 C.3     1  UNL1        0.0017
     26 C          66.5395   96.6654   11.1826 C.3     1  UNL1        0.1565
     27 O          65.7912   96.8161   12.4739 O.3     1  UNL1       -0.3802
     28 H          64.9521   97.2743   12.3098 H       1  UNL1        0.2105
@<TRIPOS>UNITY_ATOM_ATTR
12 1
charge 1
13 1
charge -1
@<TRIPOS>BOND
     1    22    23    1
     2    23    24    1
     3    23    25    1
     4    23    21    1
     5    21    26    1
     6    26    27    1
     7    21    17    1
     8    17    18   am
     9    18    19    2
    10    18     1    1
    11     1     2   ar
    12     2     3   ar
    13     3    10    1
    14    10    11   ar
    15    11    12   ar
    16    12    13    1
    17    12    14   ar
    18    14    15   ar
    19    15    16   ar
    20     3     4   ar
    21     4     5   ar
    22     5     6    1
    23     7     6    1
    24     7     8    1
    25     9     8    1
    26     5     1   ar
    27     9     7    1
    28    16    10   ar
    29     9     4    1
    30    27    28    1
    31    17    20    1
@<TRIPOS>MOLECULE
*****
 28 31 0 0 0
SMALL
GASTEIGER

@<TRIPOS>ATOM
      1 C          62.9912   88.7130   11.9619 C.ar    1  UNL1        0.1515
      2 N          63.2902   87.4823   12.7655 N.ar    1  UNL1       -0.1596
      3 N          62.6005   86.3222   12.1108 N.ar    1  UNL1       -0.2112
      4 C          61.8751   86.8361   10.9025 C.ar    1  UNL1        0.0596
      5 C          62.1166   88.3136   10.8105 C.ar    1  UNL1        0.0153
      6 C          61.3912   88.8274    9.6023 C.3     1  UNL1        0.0297
      7 C          60.7015   87.6674    8.9475 C.3     1  UNL1        0.0104
      8 C          60.1388   86.3421    8.5270 C.3     1  UNL1        0.0066
      9 C          61.0006   86.4367    9.7511 C.3     1  UNL1        0.0405
     10 C          62.6308   84.8984   12.5815 C.ar    1  UNL1        0.2362
     11 C          62.8147   83.7853   11.5929 C.ar    1  UNL1        0.3408
     12 N          62.8450   82.3615   12.0635 N.ar    1  UNL1       -0.1478
     13 O          63.0290   81.2484   11.0749 O.co2   1  UNL1       -0.6186
     14 C          62.6913   82.0505   13.5228 C.ar    1  UNL1        0.3227
     15 C          62.5074   83.1635   14.5115 C.ar    1  UNL1        0.1776
     16 N          62.4771   84.5874   14.0409 N.ar    1  UNL1       -0.2133
     17 N          64.6904   90.2996   13.1215 N.am    1  UNL1       -0.2987
     18 C          63.4807   90.0997   12.2577 C.2     1  UNL1        0.2651
     19 O          62.7603   91.2864   11.6895 O.2     1  UNL1       -0.2684
     20 H          65.1632   89.5207   13.4944 H       1  UNL1        0.1498
     21 CA         65.1799   91.6863   13.4173 C.3     1  UNL1        0.1010
     22 C          66.4694   93.1092   14.3189 C.3     1  UNL1        0.0017
     23 C          65.5001   92.0837   14.8278 C.3     1  UNL1        0.0189
     24 C          64.5309   91.0582   15.3368 C.3     1  UNL1        0.0017
     25 C          65.8203   92.4811   16.2384 C.3     1  UNL1        0.0017
     26 C          65.3493   92.6756   12.3026 C.3     1  UNL1        0.1565
     27 O          65.5699   92.1937   10.8992 O.3     1  UNL1       -0.3802
     28 H          66.4250   91.7391   10.8441 H       1  UNL1        0.2105
@<TRIPOS>UNITY_ATOM_ATTR
12 1
charge 1
13 1
charge -1
@<TRIPOS>BOND
     1    22    23    1
     2    23    24    1
     3    23    25    1
     4    23    21    1
     5    21    26    1
     6    26    27    1
     7    21    17    1
     8    17    18   am
     9    18    19    2
    10    18     1    1
    11     1     2   ar
    12     2     3   ar
    13     3    10    1
    14    10    11   ar
    15    11    12   ar
    16    12    13    1
    17    12    14   ar
    18    14    15   ar
    19    15    16   ar
    20     3     4   ar
    21     4     5   ar
    22     5     6    1
    23     7     6    1
    24     7     8    1
    25     9     8    1
    26     5     1   ar
    27     9     7    1
    28    16    10   ar
    29     9     4    1
    30    27    28    1
    31    17    20    1
@<TRIPOS>MOLECULE
*****
 28 31 0 0 0
SMALL
GASTEIGER

@<TRIPOS>ATOM
      1 C          62.9075   88.0920   12.1856 C.ar    1  UNL1        0.1515
      2 N          63.2847   86.7429   12.7220 N.ar    1  UNL1       -0.1596
      3 N          62.7349   85.7035   11.7907 N.ar    1  UNL1       -0.2112
      4 C          62.0180   86.4102   10.6786 C.ar    1  UNL1        0.0596
      5 C          62.1247   87.8863   10.9227 C.ar    1  UNL1        0.0153
      6 C          61.4077   88.5930    9.8107 C.3     1  UNL1        0.0297
      7 C          60.8580   87.5536    8.8793 C.3     1  UNL1        0.0104
      8 C          60.4398   86.3122    8.1485 C.3     1  UNL1        0.0066
      9 C          61.2351   86.2045    9.4158 C.3     1  UNL1        0.0405
     10 C          62.8770   84.2182   11.9443 C.ar    1  UNL1        0.2362
     11 C          62.5428   83.5641   13.2522 C.ar    1  UNL1        0.3408
     12 N          62.6849   82.0788   13.4059 N.ar    1  UNL1       -0.1478
     13 O          62.3507   81.4247   14.7138 O.co2   1  UNL1       -0.6186
     14 C          63.1612   81.2475   12.2518 C.ar    1  UNL1        0.3227
     15 C          63.4955   81.9016   10.9439 C.ar    1  UNL1        0.1776
     16 N          63.3534   83.3869   10.7902 N.ar    1  UNL1       -0.2133
     17 N          64.4797   89.5467   13.6559 N.am    1  UNL1       -0.2987
     18 C          63.2526   89.4145   12.8035 C.2     1  UNL1        0.2651
     19 O          62.3705   90.6049   12.5689 O.2     1  UNL1       -0.2684
     20 H          65.0586   88.7654   13.8099 H       1  UNL1        0.1498
     21 CA         64.8248   90.8692   14.2739 C.3     1  UNL1        0.1010
     22 C          66.8245   91.2618   14.8631 C.3     1  UNL1        0.0017
     23 C          65.9537   91.6853   13.7175 C.3     1  UNL1        0.0189
     24 C          65.0830   92.1087   12.5718 C.3     1  UNL1        0.0017
     25 C          67.0827   92.5013   13.1611 C.3     1  UNL1        0.0017
     26 C          64.0409   91.3756   15.4482 C.3     1  UNL1        0.1565
     27 O          63.2856   90.4138   16.3169 O.3     1  UNL1       -0.3802
     28 H          62.5676   90.0105   15.8043 H       1  UNL1        0.2105
@<TRIPOS>UNITY_ATOM_ATTR
12 1
charge 1
13 1
charge -1
@<TRIPOS>BOND
     1    22    23    1
     2    23    24    1
     3    23    25    1
     4    23    21    1
     5    21    26    1
     6    26    27    1
     7    21    17    1
     8    17    18   am
     9    18    19    2
    10    18     1    1
    11     1     2   ar
    12     2     3   ar
    13     3    10    1
    14    10    11   ar
    15    11    12   ar
    16    12    13    1
    17    12    14   ar
    18    14    15   ar
    19    15    16   ar
    20     3     4   ar
    21     4     5   ar
    22     5     6    1
    23     7     6    1
    24     7     8    1
    25     9     8    1
    26     5     1   ar
    27     9     7    1
    28    16    10   ar
    29     9     4    1
    30    27    28    1
    31    17    20    1
@<TRIPOS>MOLECULE
*****
 28 31 0 0 0
SMALL
GASTEIGER

@<TRIPOS>ATOM
      1 C          63.5025   87.6525   13.0287 C.ar    1  UNL1        0.1515
      2 N          63.6114   86.2431   13.5304 N.ar    1  UNL1       -0.1596
      3 N          62.9057   85.3480   12.5553 N.ar    1  UNL1       -0.2112
      4 C          62.3607   86.2043   11.4508 C.ar    1  UNL1        0.0596
      5 C          62.7295   87.6285   11.7434 C.ar    1  UNL1        0.0153
      6 C          62.1845   88.4847   10.6389 C.3     1  UNL1        0.0297
      7 C          61.4788   87.5896    9.6637 C.3     1  UNL1        0.0104
      8 C          60.8601   86.4665    8.8854 C.3     1  UNL1        0.0066
      9 C          61.5877   86.1803   10.1655 C.3     1  UNL1        0.0405
     10 C          62.7690   83.8583   12.6652 C.ar    1  UNL1        0.2362
     11 C          63.0026   82.9930   11.4623 C.ar    1  UNL1        0.3408
     12 N          62.8659   81.5034   11.5721 N.ar    1  UNL1       -0.1478
     13 O          63.0994   80.6380   10.3693 O.co2   1  UNL1       -0.6186
     14 C          62.4957   80.8789   12.8847 C.ar    1  UNL1        0.3227
     15 C          62.2621   81.7441   14.0875 C.ar    1  UNL1        0.1776
     16 N          62.3988   83.2338   13.9778 N.ar    1  UNL1       -0.2133
     17 N          64.2618   90.1342   12.9088 N.am    1  UNL1       -0.2987
     18 C          64.0674   88.8718   13.6951 C.2     1  UNL1        0.2651
     19 O          64.4378   88.8285   15.1481 O.2     1  UNL1       -0.2684
     20 H          64.0186   90.1625   11.9552 H       1  UNL1        0.1498
     21 CA         64.8266   91.3535   13.5752 C.3     1  UNL1        0.1010
     22 C          66.2118   92.9175   13.9428 C.3     1  UNL1        0.0017
     23 C          65.4378   92.4453   12.7479 C.3     1  UNL1        0.0189
     24 C          64.6638   91.9730   11.5529 C.3     1  UNL1        0.0017
     25 C          66.0489   93.5371   11.9205 C.3     1  UNL1        0.0017
     26 C          64.7804   91.4810   15.0691 C.3     1  UNL1        0.1565
     27 O          63.4588   91.5411   15.7762 O.3     1  UNL1       -0.3802
     28 H          62.9968   92.3575   15.5292 H       1  UNL1        0.2105
@<TRIPOS>UNITY_ATOM_ATTR
12 1
charge 1
13 1
charge -1
@<TRIPOS>BOND
     1    22    23    1
     2    23    24    1
     3    23    25    1
     4    23    21    1
     5    21    26    1
     6    26    27    1
     7    21    17    1
     8    17    18   am
     9    18    19    2
    10    18     1    1
    11     1     2   ar
    12     2     3   ar
    13     3    10    1
    14    10    11   ar
    15    11    12   ar
    16    12    13    1
    17    12    14   ar
    18    14    15   ar
    19    15    16   ar
    20     3     4   ar
    21     4     5   ar
    22     5     6    1
    23     7     6    1
    24     7     8    1
    25     9     8    1
    26     5     1   ar
    27     9     7    1
    28    16    10   ar
    29     9     4    1
    30    27    28    1
    31    17    20    1
