@<TRIPOS>MOLECULE
*****
 21 22 0 0 0
SMALL
GASTEIGER

@<TRIPOS>ATOM
      1 C          63.9090   82.0784   13.4639 C.2     1  UNL1        0.4049
      2 O          64.6371   81.9747   12.1567 O.2     1  UNL1       -0.2262
      3 N          63.7740   83.4086   14.1439 N.am    1  UNL1       -0.2454
      4 C          63.0459   83.5123   15.4511 C.3     1  UNL1        0.1011
      5 C          62.9109   84.8425   16.1311 C.3     1  UNL1        0.0443
      6 C          63.5041   86.0690   15.5037 C.2     1  UNL1       -0.0326
      7 C          63.3692   87.3993   16.1837 C.2     1  UNL1        0.0412
      8 C          64.2323   85.9654   14.1965 C.3     1  UNL1        0.0443
      9 C          64.3672   84.6352   13.5165 C.3     1  UNL1        0.1011
     10 C          63.9624   88.6258   15.5563 C.1     1  UNL1       -0.0598
     11 C          64.5556   89.8524   14.9289 C.1     1  UNL1       -0.0597
     12 C          65.1488   91.0790   14.3016 C.ar    1  UNL1        0.0442
     13 C          64.7884   91.4504   12.8937 C.ar    1  UNL1        0.0084
     14 C          65.3816   92.6770   12.2663 C.ar    1  UNL1        0.0029
     15 C          66.3352   93.5322   13.0469 C.ar    1  UNL1        0.0297
     16 C          66.6957   93.1608   14.4547 C.ar    1  UNL1        0.1408
     17 F          67.6493   94.0160   15.2352 F       1  UNL1       -0.2042
     18 C          66.1025   91.9342   15.0821 C.ar    1  UNL1        0.0379
     19 O          63.3158   80.8518   14.0913 O.3     1  UNL1       -0.4345
     20 C          60.7178   80.8349   14.1100 C.3     1  UNL1        0.0513
     21 C          62.0166   80.3021   13.5814 C.3     1  UNL1        0.2102
@<TRIPOS>BOND
     1    20    21    1
     2    21    19    1
     3    19     1    1
     4     1     2    2
     5     1     3   am
     6     3     4    1
     7     4     5    1
     8     5     6    1
     9     6     7    2
    10     7    10    1
    11    10    11    3
    12    11    12    1
    13    12    13   ar
    14    13    14   ar
    15    14    15   ar
    16    15    16   ar
    17    16    17    1
    18    16    18   ar
    19     6     8    1
    20     8     9    1
    21     9     3    1
    22    18    12   ar
@<TRIPOS>MOLECULE
*****
 21 22 0 0 0
SMALL
GASTEIGER

@<TRIPOS>ATOM
      1 C          66.5157   93.6927   13.7020 C.2     1  UNL1        0.4049
      2 O          66.4611   94.7169   12.6075 O.2     1  UNL1       -0.2262
      3 N          65.7449   92.4127   13.5705 N.am    1  UNL1       -0.2454
      4 C          65.7995   91.3885   14.6651 C.3     1  UNL1        0.1011
      5 C          65.0287   90.1085   14.5336 C.3     1  UNL1        0.0443
      6 C          64.2033   89.8525   13.3076 C.2     1  UNL1       -0.0326
      7 C          63.4325   88.5725   13.1761 C.2     1  UNL1        0.0412
      8 C          64.1487   90.8767   12.2130 C.3     1  UNL1        0.0443
      9 C          64.9195   92.1568   12.3445 C.3     1  UNL1        0.1011
     10 C          62.6071   88.3166   11.9501 C.1     1  UNL1       -0.0598
     11 C          61.7816   88.0606   10.7240 C.1     1  UNL1       -0.0597
     12 C          60.9563   87.8047    9.4980 C.ar    1  UNL1        0.0442
     13 C          60.7068   86.3975    9.0420 C.ar    1  UNL1        0.0084
     14 C          59.8814   86.1416    7.8160 C.ar    1  UNL1        0.0029
     15 C          59.3054   87.2928    7.0459 C.ar    1  UNL1        0.0297
     16 C          59.5549   88.6998    7.5017 C.ar    1  UNL1        0.1408
     17 F          58.9789   89.8510    6.7316 F       1  UNL1       -0.2042
     18 C          60.3803   88.9558    8.7278 C.ar    1  UNL1        0.0379
     19 O          67.3411   93.9487   14.9280 O.3     1  UNL1       -0.4345
     20 C          68.8133   92.3199   16.3173 C.3     1  UNL1        0.0513
     21 C          68.6347   93.2161   15.1277 C.3     1  UNL1        0.2102
@<TRIPOS>BOND
     1    20    21    1
     2    21    19    1
     3    19     1    1
     4     1     2    2
     5     1     3   am
     6     3     4    1
     7     4     5    1
     8     5     6    1
     9     6     7    2
    10     7    10    1
    11    10    11    3
    12    11    12    1
    13    12    13   ar
    14    13    14   ar
    15    14    15   ar
    16    15    16   ar
    17    16    17    1
    18    16    18   ar
    19     6     8    1
    20     8     9    1
    21     9     3    1
    22    18    12   ar
@<TRIPOS>MOLECULE
*****
 21 22 0 0 0
SMALL
GASTEIGER

@<TRIPOS>ATOM
      1 C          65.3861   91.9767   14.2181 C.2     1  UNL1        0.4049
      2 O          66.1627   91.6077   15.4471 O.2     1  UNL1       -0.2262
      3 N          64.6304   90.9230   13.4639 N.am    1  UNL1       -0.2454
      4 C          63.8538   91.2920   12.2348 C.3     1  UNL1        0.1011
      5 C          63.0981   90.2383   11.4807 C.3     1  UNL1        0.0443
      6 C          63.1191   88.8157   11.9556 C.2     1  UNL1       -0.0326
      7 C          62.3634   87.7620   11.2014 C.2     1  UNL1        0.0412
      8 C          63.8957   88.4467   13.1847 C.3     1  UNL1        0.0443
      9 C          64.6514   89.5003   13.9388 C.3     1  UNL1        0.1011
     10 C          62.3844   86.3394   11.6763 C.1     1  UNL1       -0.0598
     11 C          62.4053   84.9166   12.1513 C.1     1  UNL1       -0.0597
     12 C          62.4262   83.4940   12.6262 C.ar    1  UNL1        0.0442
     13 C          62.2122   83.1848   14.0784 C.ar    1  UNL1        0.0084
     14 C          62.2332   81.7622   14.5533 C.ar    1  UNL1        0.0029
     15 C          62.4681   80.6486   13.5761 C.ar    1  UNL1        0.0297
     16 C          62.6821   80.9578   12.1240 C.ar    1  UNL1        0.1408
     17 F          62.9170   79.8442   11.1469 F       1  UNL1       -0.2042
     18 C          62.6612   82.3805   11.6490 C.ar    1  UNL1        0.0379
     19 O          65.3651   93.3993   13.7432 O.3     1  UNL1       -0.4345
     20 C          66.0725   94.4074   11.4555 C.3     1  UNL1        0.0513
     21 C          66.4361   93.8971   12.8184 C.3     1  UNL1        0.2102
@<TRIPOS>BOND
     1    20    21    1
     2    21    19    1
     3    19     1    1
     4     1     2    2
     5     1     3   am
     6     3     4    1
     7     4     5    1
     8     5     6    1
     9     6     7    2
    10     7    10    1
    11    10    11    3
    12    11    12    1
    13    12    13   ar
    14    13    14   ar
    15    14    15   ar
    16    15    16   ar
    17    16    17    1
    18    16    18   ar
    19     6     8    1
    20     8     9    1
    21     9     3    1
    22    18    12   ar
@<TRIPOS>MOLECULE
*****
 21 22 0 0 0
SMALL
GASTEIGER

@<TRIPOS>ATOM
      1 C          63.0571   82.7906   13.8622 C.2     1  UNL1        0.4049
      2 O          63.9881   82.5367   15.0106 O.2     1  UNL1       -0.2262
      3 N          62.9463   84.1672   13.2767 N.am    1  UNL1       -0.2454
      4 C          62.0154   84.4211   12.1284 C.3     1  UNL1        0.1011
      5 C          61.9046   85.7977   11.5429 C.3     1  UNL1        0.0443
      6 C          62.7247   86.9203   12.1058 C.2     1  UNL1       -0.0326
      7 C          62.6139   88.2969   11.5203 C.2     1  UNL1        0.0412
      8 C          63.6557   86.6664   13.2542 C.3     1  UNL1        0.0443
      9 C          63.7665   85.2898   13.8397 C.3     1  UNL1        0.1011
     10 C          63.4341   89.4196   12.0833 C.1     1  UNL1       -0.0598
     11 C          64.2543   90.5423   12.6462 C.1     1  UNL1       -0.0597
     12 C          65.0744   91.6650   13.2091 C.ar    1  UNL1        0.0442
     13 C          65.5033   92.7976   12.3240 C.ar    1  UNL1        0.0084
     14 C          66.3235   93.9202   12.8869 C.ar    1  UNL1        0.0029
     15 C          66.7148   93.9104   14.3349 C.ar    1  UNL1        0.0297
     16 C          66.2859   92.7779   15.2200 C.ar    1  UNL1        0.1408
     17 F          66.6772   92.7681   16.6681 F       1  UNL1       -0.2042
     18 C          65.4657   91.6552   14.6571 C.ar    1  UNL1        0.0379
     19 O          62.2370   81.6679   13.2993 O.3     1  UNL1       -0.4345
     20 C          63.1693   81.1935   10.9211 C.3     1  UNL1        0.0513
     21 C          62.8432   80.7206   12.3068 C.3     1  UNL1        0.2102
@<TRIPOS>BOND
     1    20    21    1
     2    21    19    1
     3    19     1    1
     4     1     2    2
     5     1     3   am
     6     3     4    1
     7     4     5    1
     8     5     6    1
     9     6     7    2
    10     7    10    1
    11    10    11    3
    12    11    12    1
    13    12    13   ar
    14    13    14   ar
    15    14    15   ar
    16    15    16   ar
    17    16    17    1
    18    16    18   ar
    19     6     8    1
    20     8     9    1
    21     9     3    1
    22    18    12   ar
@<TRIPOS>MOLECULE
*****
 21 22 0 0 0
SMALL
GASTEIGER

@<TRIPOS>ATOM
      1 C          63.6936   93.6659    0.6922 C.2     1  UNL1        0.4049
      2 O          65.0335   93.0127    0.8594 O.2     1  UNL1       -0.2262
      3 N          62.5512   93.2723    1.5810 N.am    1  UNL1       -0.2454
      4 C          61.2114   93.9255    1.4139 C.3     1  UNL1        0.1011
      5 C          60.0690   93.5319    2.3027 C.3     1  UNL1        0.0443
      6 C          60.2664   92.4851    3.3587 C.2     1  UNL1       -0.0326
      7 C          59.1240   92.0915    4.2475 C.2     1  UNL1        0.0412
      8 C          61.6063   91.8319    3.5258 C.3     1  UNL1        0.0443
      9 C          62.7487   92.2255    2.6370 C.3     1  UNL1        0.1011
     10 C          59.3215   91.0446    5.3034 C.1     1  UNL1       -0.0598
     11 C          59.5190   89.9977    6.3594 C.1     1  UNL1       -0.0597
     12 C          59.7165   88.9509    7.4154 C.ar    1  UNL1        0.0442
     13 C          59.3734   87.5196    7.1260 C.ar    1  UNL1        0.0084
     14 C          59.5708   86.4728    8.1820 C.ar    1  UNL1        0.0029
     15 C          60.1114   86.8572    9.5274 C.ar    1  UNL1        0.0297
     16 C          60.4545   88.2884    9.8168 C.ar    1  UNL1        0.1408
     17 F          60.9951   88.6728   11.1621 F       1  UNL1       -0.2042
     18 C          60.2570   89.3353    8.7608 C.ar    1  UNL1        0.0379
     19 O          63.4962   94.7127   -0.3637 O.3     1  UNL1       -0.4345
     20 C          62.2202   93.5266   -2.2912 C.3     1  UNL1        0.0513
     21 C          63.4015   94.3140   -1.8067 C.3     1  UNL1        0.2102
@<TRIPOS>BOND
     1    20    21    1
     2    21    19    1
     3    19     1    1
     4     1     2    2
     5     1     3   am
     6     3     4    1
     7     4     5    1
     8     5     6    1
     9     6     7    2
    10     7    10    1
    11    10    11    3
    12    11    12    1
    13    12    13   ar
    14    13    14   ar
    15    14    15   ar
    16    15    16   ar
    17    16    17    1
    18    16    18   ar
    19     6     8    1
    20     8     9    1
    21     9     3    1
    22    18    12   ar
@<TRIPOS>MOLECULE
*****
 21 22 0 0 0
SMALL
GASTEIGER

@<TRIPOS>ATOM
      1 C          60.6464   93.1338    2.7668 C.2     1  UNL1        0.4049
      2 O          62.1051   93.1237    2.4176 O.2     1  UNL1       -0.2262
      3 N          60.1159   92.1843    3.7998 N.am    1  UNL1       -0.2454
      4 C          58.6572   92.1944    4.1490 C.3     1  UNL1        0.1011
      5 C          58.1267   91.2449    5.1820 C.3     1  UNL1        0.0443
      6 C          59.0549   90.2853    5.8657 C.2     1  UNL1       -0.0326
      7 C          58.5244   89.3358    6.8987 C.2     1  UNL1        0.0412
      8 C          60.5136   90.2752    5.5165 C.3     1  UNL1        0.0443
      9 C          61.0441   91.2247    4.4835 C.3     1  UNL1        0.1011
     10 C          59.4526   88.3762    7.5824 C.1     1  UNL1       -0.0598
     11 C          60.3808   87.4165    8.2662 C.1     1  UNL1       -0.0597
     12 C          61.3090   86.4568    8.9499 C.ar    1  UNL1        0.0442
     13 C          62.3227   85.6944    8.1491 C.ar    1  UNL1        0.0084
     14 C          63.2509   84.7348    8.8328 C.ar    1  UNL1        0.0029
     15 C          63.1655   84.5375   10.3173 C.ar    1  UNL1        0.0297
     16 C          62.1519   85.2999   11.1181 C.ar    1  UNL1        0.1408
     17 F          62.0665   85.1027   12.6026 F       1  UNL1       -0.2042
     18 C          61.2236   86.2596   10.4344 C.ar    1  UNL1        0.0379
     19 O          59.7182   94.0934    2.0831 O.3     1  UNL1       -0.4345
     20 C          59.4168   92.6658   -0.0666 C.3     1  UNL1        0.0513
     21 C          59.5082   94.0063    0.6004 C.3     1  UNL1        0.2102
@<TRIPOS>BOND
     1    20    21    1
     2    21    19    1
     3    19     1    1
     4     1     2    2
     5     1     3   am
     6     3     4    1
     7     4     5    1
     8     5     6    1
     9     6     7    2
    10     7    10    1
    11    10    11    3
    12    11    12    1
    13    12    13   ar
    14    13    14   ar
    15    14    15   ar
    16    15    16   ar
    17    16    17    1
    18    16    18   ar
    19     6     8    1
    20     8     9    1
    21     9     3    1
    22    18    12   ar
@<TRIPOS>MOLECULE
*****
 21 22 0 0 0
SMALL
GASTEIGER

@<TRIPOS>ATOM
      1 C          63.0722   83.4485   13.9838 C.2     1  UNL1        0.4049
      2 O          64.0894   83.4173   15.0857 O.2     1  UNL1       -0.2262
      3 N          62.8785   84.6982   13.1771 N.am    1  UNL1       -0.2454
      4 C          61.8613   84.7293   12.0752 C.3     1  UNL1        0.1011
      5 C          61.6675   85.9790   11.2684 C.3     1  UNL1        0.0443
      6 C          62.4909   87.1975   11.5637 C.2     1  UNL1       -0.0326
      7 C          62.2972   88.4472   10.7570 C.2     1  UNL1        0.0412
      8 C          63.5081   87.1663   12.6656 C.3     1  UNL1        0.0443
      9 C          63.7019   85.9166   13.4723 C.3     1  UNL1        0.1011
     10 C          63.1206   89.6657   11.0522 C.1     1  UNL1       -0.0598
     11 C          63.9441   90.8842   11.3474 C.1     1  UNL1       -0.0597
     12 C          64.7675   92.1027   11.6426 C.ar    1  UNL1        0.0442
     13 C          65.3493   92.3013   13.0109 C.ar    1  UNL1        0.0084
     14 C          66.1727   93.5198   13.3061 C.ar    1  UNL1        0.0029
     15 C          66.4144   94.5397   12.2331 C.ar    1  UNL1        0.0297
     16 C          65.8327   94.3412   10.8649 C.ar    1  UNL1        0.1408
     17 F          66.0744   95.3611    9.7919 F       1  UNL1       -0.2042
     18 C          65.0092   93.1226   10.5696 C.ar    1  UNL1        0.0379
     19 O          62.2488   82.2300   13.6886 O.3     1  UNL1       -0.4345
     20 C          62.9979   81.2211   11.4146 C.3     1  UNL1        0.0513
     21 C          62.8396   81.0982   12.9012 C.3     1  UNL1        0.2102
@<TRIPOS>BOND
     1    20    21    1
     2    21    19    1
     3    19     1    1
     4     1     2    2
     5     1     3   am
     6     3     4    1
     7     4     5    1
     8     5     6    1
     9     6     7    2
    10     7    10    1
    11    10    11    3
    12    11    12    1
    13    12    13   ar
    14    13    14   ar
    15    14    15   ar
    16    15    16   ar
    17    16    17    1
    18    16    18   ar
    19     6     8    1
    20     8     9    1
    21     9     3    1
    22    18    12   ar
@<TRIPOS>MOLECULE
*****
 21 22 0 0 0
SMALL
GASTEIGER

@<TRIPOS>ATOM
      1 C          60.0413   88.1718    8.6192 C.2     1  UNL1        0.4049
      2 O          59.9808   89.4125    7.7783 O.2     1  UNL1       -0.2262
      3 N          60.9469   88.1188    9.8137 N.am    1  UNL1       -0.2454
      4 C          61.0074   86.8781   10.6546 C.3     1  UNL1        0.1011
      5 C          61.9130   86.8250   11.8492 C.3     1  UNL1        0.0443
      6 C          62.7582   88.0127   12.2029 C.2     1  UNL1       -0.0326
      7 C          63.6638   87.9596   13.3975 C.2     1  UNL1        0.0412
      8 C          62.6977   89.2533   11.3621 C.3     1  UNL1        0.0443
      9 C          61.7921   89.3064   10.1675 C.3     1  UNL1        0.1011
     10 C          64.5090   89.1472   13.7512 C.1     1  UNL1       -0.0598
     11 C          65.3542   90.3349   14.1050 C.1     1  UNL1       -0.0597
     12 C          66.1993   91.5225   14.4588 C.ar    1  UNL1        0.0442
     13 C          65.9034   92.8615   13.8508 C.ar    1  UNL1        0.0084
     14 C          66.7486   94.0492   14.2045 C.ar    1  UNL1        0.0029
     15 C          67.8897   93.8979   15.1663 C.ar    1  UNL1        0.0297
     16 C          68.1857   92.5590   15.7743 C.ar    1  UNL1        0.1408
     17 F          69.3268   92.4077   16.7361 F       1  UNL1       -0.2042
     18 C          67.3405   91.3713   15.4206 C.ar    1  UNL1        0.0379
     19 O          59.1961   86.9842    8.2654 O.3     1  UNL1       -0.4345
     20 C          61.1972   85.5538    7.4289 C.3     1  UNL1        0.0513
     21 C          59.7429   85.9158    7.3656 C.3     1  UNL1        0.2102
@<TRIPOS>BOND
     1    20    21    1
     2    21    19    1
     3    19     1    1
     4     1     2    2
     5     1     3   am
     6     3     4    1
     7     4     5    1
     8     5     6    1
     9     6     7    2
    10     7    10    1
    11    10    11    3
    12    11    12    1
    13    12    13   ar
    14    13    14   ar
    15    14    15   ar
    16    15    16   ar
    17    16    17    1
    18    16    18   ar
    19     6     8    1
    20     8     9    1
    21     9     3    1
    22    18    12   ar
@<TRIPOS>MOLECULE
*****
 21 22 0 0 0
SMALL
GASTEIGER

@<TRIPOS>ATOM
      1 C          63.6539   87.4024   13.5591 C.2     1  UNL1        0.4049
      2 O          64.2103   88.7626   13.8596 O.2     1  UNL1       -0.2262
      3 N          62.7969   87.1940   12.3458 N.am    1  UNL1       -0.2454
      4 C          62.2405   85.8338   12.0454 C.3     1  UNL1        0.1011
      5 C          61.3834   85.6253   10.8321 C.3     1  UNL1        0.0443
      6 C          61.0827   86.7770    9.9193 C.2     1  UNL1       -0.0326
      7 C          60.2257   86.5685    8.7061 C.2     1  UNL1        0.0412
      8 C          61.6391   88.1371   10.2198 C.3     1  UNL1        0.0443
      9 C          62.4962   88.3456   11.4331 C.3     1  UNL1        0.1011
     10 C          59.9250   87.7201    7.7933 C.1     1  UNL1       -0.0598
     11 C          59.6243   88.8719    6.8805 C.1     1  UNL1       -0.0597
     12 C          59.3237   90.0235    5.9677 C.ar    1  UNL1        0.0442
     13 C          60.4374   90.7081    5.2320 C.ar    1  UNL1        0.0084
     14 C          60.1367   91.8598    4.3193 C.ar    1  UNL1        0.0029
     15 C          58.7223   92.3269    4.1421 C.ar    1  UNL1        0.0297
     16 C          57.6087   91.6424    4.8777 C.ar    1  UNL1        0.1408
     17 F          56.1943   92.1096    4.7005 F       1  UNL1       -0.2042
     18 C          57.9093   90.4907    5.7905 C.ar    1  UNL1        0.0379
     19 O          63.9546   86.2508   14.4719 O.3     1  UNL1       -0.4345
     20 C          64.8229   83.9092   13.7556 C.3     1  UNL1        0.0513
     21 C          65.0952   85.3269   14.1630 C.3     1  UNL1        0.2102
@<TRIPOS>BOND
     1    20    21    1
     2    21    19    1
     3    19     1    1
     4     1     2    2
     5     1     3   am
     6     3     4    1
     7     4     5    1
     8     5     6    1
     9     6     7    2
    10     7    10    1
    11    10    11    3
    12    11    12    1
    13    12    13   ar
    14    13    14   ar
    15    14    15   ar
    16    15    16   ar
    17    16    17    1
    18    16    18   ar
    19     6     8    1
    20     8     9    1
    21     9     3    1
    22    18    12   ar
