@<TRIPOS>MOLECULE
*****
 23 25 0 0 0
SMALL
GASTEIGER

@<TRIPOS>ATOM
      1 C          60.9920   89.1492    9.1598 C.3     1  UNL1        0.0310
      2 C          61.6529   88.2638   10.1744 C.ar    1  UNL1       -0.0222
      3 C          62.3669   88.8692   11.3464 C.ar    1  UNL1       -0.0043
      4 C          63.0278   87.9838   12.3610 C.ar    1  UNL1       -0.0009
      5 C          62.9746   86.4931   12.2036 C.ar    1  UNL1       -0.0079
      6 C          62.2605   85.8877   11.0316 C.ar    1  UNL1       -0.0187
      7 C          61.5997   86.7731   10.0170 C.ar    1  UNL1       -0.0082
      8 C          62.3735   84.3959   11.1400 C.3     1  UNL1        0.0480
      9 C          63.1574   84.0793   12.3791 C.2     1  UNL1       -0.0421
     10 C          63.5289   85.3754   13.0363 C.2     1  UNL1       -0.0246
     11 C          64.3165   85.5273   14.3039 C.3     1  UNL1        0.0634
     12 C          65.7490   85.0855   14.3543 C.3     1  UNL1        0.0111
     13 C          63.6715   86.1209   15.5211 C.ar    1  UNL1        0.0818
     14 C          62.9387   85.2383   16.4876 C.ar    1  UNL1        0.1139
     15 N          62.2938   85.8321   17.7048 N.ar    1  UNL1       -0.2394
     16 C          62.3816   87.3084   17.9555 C.ar    1  UNL1        0.1195
     17 C          63.1144   88.1909   16.9890 C.ar    1  UNL1        0.1191
     18 N          63.7593   87.5972   15.7719 N.ar    1  UNL1       -0.2446
     19 C          63.5083   82.7074   12.8740 C.3     1  UNL1        0.0394
     20 C          62.6828   82.0638   13.9484 C.3     1  UNL1        0.0765
     21 N          61.8870   80.8292   13.6445 N.3     1  UNL1       -0.2700
     22 C          62.4913   79.7313   12.8202 C.3     1  UNL1        0.0897
     23 C          60.4868   80.6925   14.1648 C.3     1  UNL1        0.0897
@<TRIPOS>BOND
     1     1     2    1
     2     2     3   ar
     3     3     4   ar
     4     4     5   ar
     5     5     6   ar
     6     6     7   ar
     7     6     8    1
     8     8     9    1
     9     9    19    1
    10    19    20    1
    11    20    21    1
    12    21    22    1
    13    21    23    1
    14     9    10    2
    15    10    11    1
    16    11    12    1
    17    11    13    1
    18    13    14   ar
    19    14    15   ar
    20    15    16   ar
    21    16    17   ar
    22    17    18   ar
    23     7     2   ar
    24    18    13   ar
    25    10     5    1
@<TRIPOS>MOLECULE
*****
 23 25 0 0 0
SMALL
GASTEIGER

@<TRIPOS>ATOM
      1 C          60.1174   89.1871    8.8841 C.3     1  UNL1        0.0310
      2 C          61.0084   89.5444   10.0366 C.ar    1  UNL1       -0.0222
      3 C          60.7195   89.0009   11.4045 C.ar    1  UNL1       -0.0043
      4 C          61.6105   89.3583   12.5571 C.ar    1  UNL1       -0.0009
      5 C          62.7904   90.2590   12.3418 C.ar    1  UNL1       -0.0079
      6 C          63.0793   90.8025   10.9739 C.ar    1  UNL1       -0.0187
      7 C          62.1883   90.4452    9.8213 C.ar    1  UNL1       -0.0082
      8 C          64.3058   91.6613   11.0658 C.3     1  UNL1        0.0480
      9 C          64.7748   91.6486   12.4905 C.2     1  UNL1       -0.0421
     10 C          63.8383   90.7819   13.2791 C.2     1  UNL1       -0.0246
     11 C          63.9330   90.4895   14.7473 C.3     1  UNL1        0.0634
     12 C          64.1482   91.6086   15.7226 C.3     1  UNL1        0.0111
     13 C          63.8124   89.0780   15.2402 C.ar    1  UNL1        0.0818
     14 C          63.1061   88.7925   16.5323 C.ar    1  UNL1        0.1139
     15 N          62.9855   87.3808   17.0252 N.ar    1  UNL1       -0.2394
     16 C          63.5714   86.2547   16.2260 C.ar    1  UNL1        0.1195
     17 C          64.2778   86.5402   14.9339 C.ar    1  UNL1        0.1191
     18 N          64.3983   87.9518   14.4410 N.ar    1  UNL1       -0.2446
     19 C          65.9705   92.3750   13.0317 C.3     1  UNL1        0.0394
     20 C          67.1080   92.7301   12.1206 C.3     1  UNL1        0.0765
     21 N          66.9528   93.8415   11.1253 N.3     1  UNL1       -0.2700
     22 C          67.5041   93.6889    9.7387 C.3     1  UNL1        0.0897
     23 C          66.2463   95.1055   11.5167 C.3     1  UNL1        0.0897
@<TRIPOS>BOND
     1     1     2    1
     2     2     3   ar
     3     3     4   ar
     4     4     5   ar
     5     5     6   ar
     6     6     7   ar
     7     6     8    1
     8     8     9    1
     9     9    19    1
    10    19    20    1
    11    20    21    1
    12    21    22    1
    13    21    23    1
    14     9    10    2
    15    10    11    1
    16    11    12    1
    17    11    13    1
    18    13    14   ar
    19    14    15   ar
    20    15    16   ar
    21    16    17   ar
    22    17    18   ar
    23     7     2   ar
    24    18    13   ar
    25    10     5    1
@<TRIPOS>MOLECULE
*****
 23 25 0 0 0
SMALL
GASTEIGER

@<TRIPOS>ATOM
      1 C          60.9945   88.5421    9.3200 C.3     1  UNL1        0.0310
      2 C          61.9324   89.2649   10.2409 C.ar    1  UNL1       -0.0222
      3 C          62.1521   88.7590   11.6358 C.ar    1  UNL1       -0.0043
      4 C          63.0899   89.4818   12.5567 C.ar    1  UNL1       -0.0009
      5 C          63.8081   90.7104   12.0827 C.ar    1  UNL1       -0.0079
      6 C          63.5884   91.2162   10.6877 C.ar    1  UNL1       -0.0187
      7 C          62.6506   90.4934    9.7669 C.ar    1  UNL1       -0.0082
      8 C          64.4299   92.4441   10.5020 C.3     1  UNL1        0.0480
      9 C          65.1696   92.6970   11.7821 C.2     1  UNL1       -0.0421
     10 C          64.7853   91.6256   12.7590 C.2     1  UNL1       -0.0246
     11 C          65.2897   91.4926   14.1654 C.3     1  UNL1        0.0634
     12 C          64.4574   90.7911   15.1975 C.3     1  UNL1        0.0111
     13 C          66.6263   92.0611   14.5398 C.ar    1  UNL1        0.0818
     14 C          67.8441   91.7032   13.7406 C.ar    1  UNL1        0.1139
     15 N          69.1808   92.2718   14.1150 N.ar    1  UNL1       -0.2394
     16 C          69.2996   93.1983   15.2887 C.ar    1  UNL1        0.1195
     17 C          68.0818   93.5562   16.0879 C.ar    1  UNL1        0.1191
     18 N          66.7452   92.9877   15.7134 N.ar    1  UNL1       -0.2446
     19 C          66.1258   93.8237   12.0401 C.3     1  UNL1        0.0394
     20 C          66.0786   95.0573   11.1881 C.3     1  UNL1        0.0765
     21 N          66.9797   95.1798    9.9952 N.3     1  UNL1       -0.2700
     22 C          67.1390   96.5038    9.3085 C.3     1  UNL1        0.0897
     23 C          67.7214   93.9783    9.4891 C.3     1  UNL1        0.0897
@<TRIPOS>BOND
     1     1     2    1
     2     2     3   ar
     3     3     4   ar
     4     4     5   ar
     5     5     6   ar
     6     6     7   ar
     7     6     8    1
     8     8     9    1
     9     9    19    1
    10    19    20    1
    11    20    21    1
    12    21    22    1
    13    21    23    1
    14     9    10    2
    15    10    11    1
    16    11    12    1
    17    11    13    1
    18    13    14   ar
    19    14    15   ar
    20    15    16   ar
    21    16    17   ar
    22    17    18   ar
    23     7     2   ar
    24    18    13   ar
    25    10     5    1
@<TRIPOS>MOLECULE
*****
 23 25 0 0 0
SMALL
GASTEIGER

@<TRIPOS>ATOM
      1 C          64.0128   83.0536   13.7727 C.3     1  UNL1        0.0310
      2 C          63.9811   84.5530   13.8003 C.ar    1  UNL1       -0.0222
      3 C          64.5819   85.2947   14.9573 C.ar    1  UNL1       -0.0043
      4 C          64.5503   86.7941   14.9849 C.ar    1  UNL1       -0.0009
      5 C          63.9179   87.5518   13.8554 C.ar    1  UNL1       -0.0079
      6 C          63.3171   86.8101   12.6983 C.ar    1  UNL1       -0.0187
      7 C          63.3487   85.3107   12.6707 C.ar    1  UNL1       -0.0082
      8 C          62.7668   87.8203   11.7355 C.3     1  UNL1        0.0480
      9 C          63.0275   89.1863   12.2977 C.2     1  UNL1       -0.0421
     10 C          63.7389   89.0204   13.6078 C.2     1  UNL1       -0.0246
     11 C          64.1919   90.1284   14.5117 C.3     1  UNL1        0.0634
     12 C          63.6170   90.2532   15.8915 C.3     1  UNL1        0.0111
     13 C          65.2197   91.1118   14.0358 C.ar    1  UNL1        0.0818
     14 C          66.6224   91.0450   14.5630 C.ar    1  UNL1        0.1139
     15 N          67.6502   92.0285   14.0871 N.ar    1  UNL1       -0.2394
     16 C          67.2752   93.0788   13.0839 C.ar    1  UNL1        0.1195
     17 C          65.8726   93.1456   12.5566 C.ar    1  UNL1        0.1191
     18 N          64.8448   92.1621   13.0326 N.ar    1  UNL1       -0.2446
     19 C          62.6441   90.4895   11.6614 C.3     1  UNL1        0.0394
     20 C          61.9631   90.4999   10.3250 C.3     1  UNL1        0.0765
     21 N          60.5340   90.0596   10.2081 N.3     1  UNL1       -0.2700
     22 C          60.1134   89.1705    9.0755 C.3     1  UNL1        0.0897
     23 C          59.5255   90.5083   11.2237 C.3     1  UNL1        0.0897
@<TRIPOS>BOND
     1     1     2    1
     2     2     3   ar
     3     3     4   ar
     4     4     5   ar
     5     5     6   ar
     6     6     7   ar
     7     6     8    1
     8     8     9    1
     9     9    19    1
    10    19    20    1
    11    20    21    1
    12    21    22    1
    13    21    23    1
    14     9    10    2
    15    10    11    1
    16    11    12    1
    17    11    13    1
    18    13    14   ar
    19    14    15   ar
    20    15    16   ar
    21    16    17   ar
    22    17    18   ar
    23     7     2   ar
    24    18    13   ar
    25    10     5    1
@<TRIPOS>MOLECULE
*****
 23 25 0 0 0
SMALL
GASTEIGER

@<TRIPOS>ATOM
      1 C          60.2054   88.9599    8.4908 C.3     1  UNL1        0.0310
      2 C          61.0439   89.0814    9.7286 C.ar    1  UNL1       -0.0222
      3 C          61.3065   90.4315   10.3270 C.ar    1  UNL1       -0.0043
      4 C          62.1450   90.5531   11.5648 C.ar    1  UNL1       -0.0009
      5 C          62.7210   89.3245   12.2041 C.ar    1  UNL1       -0.0079
      6 C          62.4585   87.9744   11.6056 C.ar    1  UNL1       -0.0187
      7 C          61.6199   87.8528   10.3679 C.ar    1  UNL1       -0.0082
      8 C          63.1541   86.9492   12.4514 C.3     1  UNL1        0.0480
      9 C          63.8465   87.6658   13.5725 C.2     1  UNL1       -0.0421
     10 C          63.5789   89.1338   13.4197 C.2     1  UNL1       -0.0246
     11 C          64.0809   90.2204   14.3237 C.3     1  UNL1        0.0634
     12 C          63.5836   90.3105   15.7361 C.3     1  UNL1        0.0111
     13 C          65.0802   91.2169   13.8156 C.ar    1  UNL1        0.0818
     14 C          66.4463   91.2896   14.4307 C.ar    1  UNL1        0.1139
     15 N          67.4457   92.2862   13.9224 N.ar    1  UNL1       -0.2394
     16 C          67.0788   93.2101   12.7991 C.ar    1  UNL1        0.1195
     17 C          65.7126   93.1374   12.1840 C.ar    1  UNL1        0.1191
     18 N          64.7134   92.1408   12.6922 N.ar    1  UNL1       -0.2446
     19 C          64.6632   87.0267   14.6563 C.3     1  UNL1        0.0394
     20 C          64.3563   85.6271   15.1003 C.3     1  UNL1        0.0765
     21 N          63.1389   85.3544   15.9330 N.3     1  UNL1       -0.2700
     22 C          62.8676   86.1780   17.1570 C.3     1  UNL1        0.0897
     23 C          62.1928   84.2582   15.5418 C.3     1  UNL1        0.0897
@<TRIPOS>BOND
     1     1     2    1
     2     2     3   ar
     3     3     4   ar
     4     4     5   ar
     5     5     6   ar
     6     6     7   ar
     7     6     8    1
     8     8     9    1
     9     9    19    1
    10    19    20    1
    11    20    21    1
    12    21    22    1
    13    21    23    1
    14     9    10    2
    15    10    11    1
    16    11    12    1
    17    11    13    1
    18    13    14   ar
    19    14    15   ar
    20    15    16   ar
    21    16    17   ar
    22    17    18   ar
    23     7     2   ar
    24    18    13   ar
    25    10     5    1
@<TRIPOS>MOLECULE
*****
 23 25 0 0 0
SMALL
GASTEIGER

@<TRIPOS>ATOM
      1 C          59.5581   88.7067    7.7727 C.3     1  UNL1        0.0310
      2 C          60.3790   87.7575    8.5944 C.ar    1  UNL1       -0.0222
      3 C          60.6140   86.3572    8.1111 C.ar    1  UNL1       -0.0043
      4 C          61.4350   85.4080    8.9328 C.ar    1  UNL1       -0.0009
      5 C          62.0209   85.8592   10.2378 C.ar    1  UNL1       -0.0079
      6 C          61.7859   87.2596   10.7211 C.ar    1  UNL1       -0.0187
      7 C          60.9649   88.2088    9.8994 C.ar    1  UNL1       -0.0082
      8 C          62.4857   87.4190   12.0383 C.3     1  UNL1        0.0480
      9 C          63.1533   86.1171   12.3690 C.2     1  UNL1       -0.0421
     10 C          62.8660   85.1531   11.2562 C.2     1  UNL1       -0.0246
     11 C          63.3405   83.7324   11.1760 C.3     1  UNL1        0.0634
     12 C          64.3006   83.3221   10.0990 C.3     1  UNL1        0.0111
     13 C          62.8549   82.7220   12.1726 C.ar    1  UNL1        0.0818
     14 C          62.8715   81.2620   11.8293 C.ar    1  UNL1        0.1139
     15 N          62.3859   80.2516   12.8261 N.ar    1  UNL1       -0.2394
     16 C          61.8837   80.7013   14.1661 C.ar    1  UNL1        0.1195
     17 C          61.8672   82.1614   14.5094 C.ar    1  UNL1        0.1191
     18 N          62.3528   83.1717   13.5127 N.ar    1  UNL1       -0.2446
     19 C          63.9656   85.8296   13.5969 C.3     1  UNL1        0.0394
     20 C          64.2667   86.9295   14.5714 C.3     1  UNL1        0.0765
     21 N          63.5644   86.9708   15.8962 N.3     1  UNL1       -0.2700
     22 C          63.1900   85.6929   16.5868 C.3     1  UNL1        0.0897
     23 C          63.2366   88.2900   16.5304 C.3     1  UNL1        0.0897
@<TRIPOS>BOND
     1     1     2    1
     2     2     3   ar
     3     3     4   ar
     4     4     5   ar
     5     5     6   ar
     6     6     7   ar
     7     6     8    1
     8     8     9    1
     9     9    19    1
    10    19    20    1
    11    20    21    1
    12    21    22    1
    13    21    23    1
    14     9    10    2
    15    10    11    1
    16    11    12    1
    17    11    13    1
    18    13    14   ar
    19    14    15   ar
    20    15    16   ar
    21    16    17   ar
    22    17    18   ar
    23     7     2   ar
    24    18    13   ar
    25    10     5    1
@<TRIPOS>MOLECULE
*****
 23 25 0 0 0
SMALL
GASTEIGER

@<TRIPOS>ATOM
      1 C          67.3623   93.7540    9.9410 C.3     1  UNL1        0.0310
      2 C          66.5002   92.9896   10.9015 C.ar    1  UNL1       -0.0222
      3 C          66.9371   92.8146   12.3257 C.ar    1  UNL1       -0.0043
      4 C          66.0750   92.0502   13.2862 C.ar    1  UNL1       -0.0009
      5 C          64.7760   91.4608   12.8224 C.ar    1  UNL1       -0.0079
      6 C          64.3391   91.6358   11.3982 C.ar    1  UNL1       -0.0187
      7 C          65.2012   92.4003   10.4378 C.ar    1  UNL1       -0.0082
      8 C          63.0173   90.9466   11.2308 C.3     1  UNL1        0.0480
      9 C          62.6374   90.3456   12.5515 C.2     1  UNL1       -0.0421
     10 C          63.7243   90.6634   13.5352 C.2     1  UNL1       -0.0246
     11 C          63.7544   90.2554   14.9783 C.3     1  UNL1        0.0634
     12 C          63.8205   91.3007   16.0521 C.3     1  UNL1        0.0111
     13 C          63.7182   88.8021   15.3478 C.ar    1  UNL1        0.0818
     14 C          63.0892   88.3721   16.6398 C.ar    1  UNL1        0.1139
     15 N          63.0530   86.9186   17.0093 N.ar    1  UNL1       -0.2394
     16 C          63.6460   85.8953   16.0867 C.ar    1  UNL1        0.1195
     17 C          64.2751   86.3253   14.7946 C.ar    1  UNL1        0.1191
     18 N          64.3112   87.7787   14.4252 N.ar    1  UNL1       -0.2446
     19 C          61.3896   89.5639   12.8383 C.3     1  UNL1        0.0394
     20 C          60.3037   89.4797   11.8069 C.3     1  UNL1        0.0765
     21 N          60.4591   88.5666   10.6271 N.3     1  UNL1       -0.2700
     22 C          60.2367   89.0901    9.2391 C.3     1  UNL1        0.0897
     23 C          60.8370   87.1300   10.8353 C.3     1  UNL1        0.0897
@<TRIPOS>BOND
     1     1     2    1
     2     2     3   ar
     3     3     4   ar
     4     4     5   ar
     5     5     6   ar
     6     6     7   ar
     7     6     8    1
     8     8     9    1
     9     9    19    1
    10    19    20    1
    11    20    21    1
    12    21    22    1
    13    21    23    1
    14     9    10    2
    15    10    11    1
    16    11    12    1
    17    11    13    1
    18    13    14   ar
    19    14    15   ar
    20    15    16   ar
    21    16    17   ar
    22    17    18   ar
    23     7     2   ar
    24    18    13   ar
    25    10     5    1
@<TRIPOS>MOLECULE
*****
 23 25 0 0 0
SMALL
GASTEIGER

@<TRIPOS>ATOM
      1 C          60.1466   87.3578    8.1957 C.3     1  UNL1        0.0310
      2 C          60.9880   87.2239    9.4303 C.ar    1  UNL1       -0.0222
      3 C          61.2828   85.8652    9.9932 C.ar    1  UNL1       -0.0043
      4 C          62.1241   85.7312   11.2278 C.ar    1  UNL1       -0.0009
      5 C          62.6707   86.9560   11.8994 C.ar    1  UNL1       -0.0079
      6 C          62.3759   88.3147   11.3365 C.ar    1  UNL1       -0.0187
      7 C          61.5345   88.4487   10.1019 C.ar    1  UNL1       -0.0082
      8 C          63.0468   89.3337   12.2093 C.3     1  UNL1        0.0480
      9 C          63.7563   88.6047   13.3116 C.2     1  UNL1       -0.0421
     10 C          63.5239   87.1352   13.1201 C.2     1  UNL1       -0.0246
     11 C          64.0519   86.0376   13.9955 C.3     1  UNL1        0.0634
     12 C          64.9884   86.3613   15.1216 C.3     1  UNL1        0.0111
     13 C          63.6433   84.6162   13.7450 C.ar    1  UNL1        0.0818
     14 C          62.4991   84.0188   14.5091 C.ar    1  UNL1        0.1139
     15 N          62.0906   82.5974   14.2585 N.ar    1  UNL1       -0.2394
     16 C          62.8264   81.7734   13.2438 C.ar    1  UNL1        0.1195
     17 C          63.9706   82.3708   12.4796 C.ar    1  UNL1        0.1191
     18 N          64.3791   83.7921   12.7302 N.ar    1  UNL1       -0.2446
     19 C          64.5577   89.2345   14.4122 C.3     1  UNL1        0.0394
     20 C          64.5534   90.7245   14.5847 C.3     1  UNL1        0.0765
     21 N          65.6285   91.5561   13.9502 N.3     1  UNL1       -0.2700
     22 C          66.9858   91.6375   14.5835 C.3     1  UNL1        0.0897
     23 C          65.3462   92.3063   12.6824 C.3     1  UNL1        0.0897
@<TRIPOS>BOND
     1     1     2    1
     2     2     3   ar
     3     3     4   ar
     4     4     5   ar
     5     5     6   ar
     6     6     7   ar
     7     6     8    1
     8     8     9    1
     9     9    19    1
    10    19    20    1
    11    20    21    1
    12    21    22    1
    13    21    23    1
    14     9    10    2
    15    10    11    1
    16    11    12    1
    17    11    13    1
    18    13    14   ar
    19    14    15   ar
    20    15    16   ar
    21    16    17   ar
    22    17    18   ar
    23     7     2   ar
    24    18    13   ar
    25    10     5    1
@<TRIPOS>MOLECULE
*****
 23 25 0 0 0
SMALL
GASTEIGER

@<TRIPOS>ATOM
      1 C          60.4856   88.5135    8.7526 C.3     1  UNL1        0.0310
      2 C          61.2705   87.9053    9.8769 C.ar    1  UNL1       -0.0222
      3 C          62.0564   88.7840   10.8043 C.ar    1  UNL1       -0.0043
      4 C          62.8413   88.1758   11.9285 C.ar    1  UNL1       -0.0009
      5 C          62.8405   86.6888   12.1253 C.ar    1  UNL1       -0.0079
      6 C          62.0546   85.8101   11.1979 C.ar    1  UNL1       -0.0187
      7 C          61.2697   86.4183   10.0737 C.ar    1  UNL1       -0.0082
      8 C          62.2423   84.3879   11.6367 C.3     1  UNL1        0.0480
      9 C          63.1441   84.3879   12.8353 C.2     1  UNL1       -0.0421
     10 C          63.5138   85.8099   13.1373 C.2     1  UNL1       -0.0246
     11 C          64.4011   86.2719   14.2550 C.3     1  UNL1        0.0634
     12 C          65.6302   85.4886   14.6096 C.3     1  UNL1        0.0111
     13 C          64.0594   87.5172   15.0180 C.ar    1  UNL1        0.0818
     14 C          64.4709   88.8586   14.4876 C.ar    1  UNL1        0.1139
     15 N          64.1292   90.1040   15.2508 N.ar    1  UNL1       -0.2394
     16 C          63.3759   90.0079   16.5444 C.ar    1  UNL1        0.1195
     17 C          62.9644   88.6666   17.0748 C.ar    1  UNL1        0.1191
     18 N          63.3061   87.4213   16.3117 N.ar    1  UNL1       -0.2446
     19 C          63.5969   83.1782   13.5980 C.3     1  UNL1        0.0394
     20 C          62.5995   82.3524   14.3553 C.3     1  UNL1        0.0765
     21 N          61.9447   81.1755   13.6952 N.3     1  UNL1       -0.2700
     22 C          62.6645   80.4258   12.6136 C.3     1  UNL1        0.0897
     23 C          60.5700   80.7482   14.1166 C.3     1  UNL1        0.0897
@<TRIPOS>BOND
     1     1     2    1
     2     2     3   ar
     3     3     4   ar
     4     4     5   ar
     5     5     6   ar
     6     6     7   ar
     7     6     8    1
     8     8     9    1
     9     9    19    1
    10    19    20    1
    11    20    21    1
    12    21    22    1
    13    21    23    1
    14     9    10    2
    15    10    11    1
    16    11    12    1
    17    11    13    1
    18    13    14   ar
    19    14    15   ar
    20    15    16   ar
    21    16    17   ar
    22    17    18   ar
    23     7     2   ar
    24    18    13   ar
    25    10     5    1
