@<TRIPOS>MOLECULE
*****
 25 27 0 0 0
SMALL
GASTEIGER

@<TRIPOS>ATOM
      1 C          65.7955   92.1104   14.1684 C.ar    1  UNL1        0.0347
      2 C          65.3728   90.8699   14.8980 C.ar    1  UNL1        0.0028
      3 C          64.4533   89.8870   14.2359 C.ar    1  UNL1        0.0001
      4 C          63.9566   90.1445   12.8442 C.ar    1  UNL1       -0.0002
      5 C          63.0372   89.1616   12.1820 C.ar    1  UNL1       -0.0017
      6 C          62.5405   89.4192   10.7903 C.ar    1  UNL1        0.0070
      7 C          62.9632   90.6597   10.0607 C.ar    1  UNL1       -0.0017
      8 C          63.8827   91.6427   10.7228 C.ar    1  UNL1       -0.0002
      9 C          64.3794   91.3851   12.1146 C.ar    1  UNL1        0.0001
     10 C          65.2988   92.3680   12.7767 C.ar    1  UNL1        0.0028
     11 C          67.4422   92.7121   16.0858 C.3     1  UNL1        0.0773
     12 C          66.7150   93.0934   14.8306 C.2     1  UNL1        0.1735
     13 O          66.9072   94.4576   14.2374 O.2     1  UNL1       -0.2913
     14 C          61.6211   88.4362   10.1282 C.3     1  UNL1        0.1410
     15 O          62.7716   87.8968    9.3312 O.3     1  UNL1       -0.3771
     16 H          63.5802   88.3798    9.5631 H       1  UNL1        0.2112
     17 C          60.4705   88.9756   10.9251 C.ar    1  UNL1        0.0825
     18 C          59.9088   90.3635   10.8343 C.ar    1  UNL1        0.1157
     19 N          58.7707   90.4675   11.8059 N.ar    1  UNL1       -0.2228
     20 C          58.6291   89.1438   12.4972 C.ar    1  UNL1        0.1749
     21 N          59.6796   88.2218   11.9528 N.ar    1  UNL1       -0.3361
     22 H          59.8246   87.2862   12.2227 H       1  UNL1        0.1673
     23 C          60.7016   87.4533    9.4660 C.3     1  UNL1        0.0340
     24 C          60.8793   85.9828    9.7031 C.3     1  UNL1        0.0031
     25 C          59.6044   87.9408    8.5668 C.3     1  UNL1        0.0031
@<TRIPOS>BOND
     1    11    12    1
     2    12    13    2
     3    12     1    1
     4     1     2   ar
     5     2     3   ar
     6     3     4   ar
     7     4     5   ar
     8     5     6   ar
     9     6    14    1
    10    14    15    1
    11    14    17    1
    12    17    18   ar
    13    18    19   ar
    14    19    20   ar
    15    20    21   ar
    16    14    23    1
    17    23    24    1
    18    23    25    1
    19     6     7   ar
    20     7     8   ar
    21     8     9   ar
    22     9    10   ar
    23    10     1   ar
    24     9     4   ar
    25    21    17   ar
    26    15    16    1
    27    21    22    1
@<TRIPOS>MOLECULE
*****
 25 27 0 0 0
SMALL
GASTEIGER

@<TRIPOS>ATOM
      1 C          60.8238   86.9851    9.2489 C.ar    1  UNL1        0.0347
      2 C          61.4322   86.0759   10.2751 C.ar    1  UNL1        0.0028
      3 C          62.2840   86.6453   11.3708 C.ar    1  UNL1        0.0001
      4 C          62.5272   88.1238   11.4402 C.ar    1  UNL1       -0.0002
      5 C          63.3789   88.6931   12.5358 C.ar    1  UNL1       -0.0017
      6 C          63.6222   90.1716   12.6052 C.ar    1  UNL1        0.0070
      7 C          63.0137   91.0808   11.5790 C.ar    1  UNL1       -0.0017
      8 C          62.1620   90.5115   10.4833 C.ar    1  UNL1       -0.0002
      9 C          61.9188   89.0329   10.4140 C.ar    1  UNL1        0.0001
     10 C          61.0670   88.4636    9.3183 C.ar    1  UNL1        0.0028
     11 C          60.5562   85.4315    7.1838 C.3     1  UNL1        0.0773
     12 C          59.9720   86.4157    8.1533 C.2     1  UNL1        0.1735
     13 O          58.5362   86.8307    8.0271 O.2     1  UNL1       -0.2913
     14 C          64.4739   90.7409   13.7009 C.3     1  UNL1        0.1410
     15 O          65.0338   91.7492   12.7417 O.3     1  UNL1       -0.3771
     16 H          64.6352   91.6194   11.8670 H       1  UNL1        0.2112
     17 C          63.9140   89.7327   14.6600 C.ar    1  UNL1        0.0825
     18 C          64.4598   88.3586   14.9129 C.ar    1  UNL1        0.1157
     19 N          63.5931   87.6982   15.9439 N.ar    1  UNL1       -0.2228
     20 C          62.5118   88.6642   16.3281 C.ar    1  UNL1        0.1749
     21 N          62.7102   89.9216   15.5346 N.ar    1  UNL1       -0.3361
     22 H          62.1488   90.7291   15.5799 H       1  UNL1        0.1673
     23 C          65.3256   91.3103   14.7965 C.3     1  UNL1        0.0340
     24 C          64.6826   91.9054   16.0140 C.3     1  UNL1        0.0031
     25 C          66.8205   91.2845   14.6746 C.3     1  UNL1        0.0031
@<TRIPOS>BOND
     1    11    12    1
     2    12    13    2
     3    12     1    1
     4     1     2   ar
     5     2     3   ar
     6     3     4   ar
     7     4     5   ar
     8     5     6   ar
     9     6    14    1
    10    14    15    1
    11    14    17    1
    12    17    18   ar
    13    18    19   ar
    14    19    20   ar
    15    20    21   ar
    16    14    23    1
    17    23    24    1
    18    23    25    1
    19     6     7   ar
    20     7     8   ar
    21     8     9   ar
    22     9    10   ar
    23    10     1   ar
    24     9     4   ar
    25    21    17   ar
    26    15    16    1
    27    21    22    1
@<TRIPOS>MOLECULE
*****
 25 27 0 0 0
SMALL
GASTEIGER

@<TRIPOS>ATOM
      1 C          61.5890   88.2983   10.2046 C.ar    1  UNL1        0.0347
      2 C          61.7372   89.6628    9.5995 C.ar    1  UNL1        0.0028
      3 C          62.5902   90.6947   10.2761 C.ar    1  UNL1        0.0001
      4 C          63.2948   90.3620   11.5578 C.ar    1  UNL1       -0.0002
      5 C          64.1477   91.3939   12.2344 C.ar    1  UNL1       -0.0017
      6 C          64.8524   91.0613   13.5161 C.ar    1  UNL1        0.0070
      7 C          64.7042   89.6968   14.1213 C.ar    1  UNL1       -0.0017
      8 C          63.8513   88.6649   13.4447 C.ar    1  UNL1       -0.0002
      9 C          63.1466   88.9976   12.1629 C.ar    1  UNL1        0.0001
     10 C          62.2936   87.9657   11.4863 C.ar    1  UNL1        0.0028
     11 C          59.6657   87.6912    8.5669 C.3     1  UNL1        0.0773
     12 C          60.7361   87.2665    9.5280 C.2     1  UNL1        0.1735
     13 O          60.9536   85.8099    9.8125 O.2     1  UNL1       -0.2913
     14 C          65.7053   92.0932   14.1927 C.3     1  UNL1        0.1410
     15 O          64.8327   92.0160   15.4103 O.3     1  UNL1       -0.3771
     16 H          64.1246   91.3703   15.2603 H       1  UNL1        0.2112
     17 C          66.5779   92.1703   12.9751 C.ar    1  UNL1        0.0825
     18 C          67.9775   91.6436   12.8587 C.ar    1  UNL1        0.1157
     19 N          68.4687   91.9354   11.4717 N.ar    1  UNL1       -0.2228
     20 C          67.3727   92.6425   10.7310 C.ar    1  UNL1        0.1749
     21 N          66.2041   92.7876   11.6602 N.ar    1  UNL1       -0.3361
     22 H          65.3429   93.2134   11.4448 H       1  UNL1        0.1673
     23 C          66.5583   93.1250   14.8693 C.3     1  UNL1        0.0340
     24 C          66.8299   94.4352   14.1914 C.3     1  UNL1        0.0031
     25 C          67.1395   92.8466   16.2238 C.3     1  UNL1        0.0031
@<TRIPOS>BOND
     1    11    12    1
     2    12    13    2
     3    12     1    1
     4     1     2   ar
     5     2     3   ar
     6     3     4   ar
     7     4     5   ar
     8     5     6   ar
     9     6    14    1
    10    14    15    1
    11    14    17    1
    12    17    18   ar
    13    18    19   ar
    14    19    20   ar
    15    20    21   ar
    16    14    23    1
    17    23    24    1
    18    23    25    1
    19     6     7   ar
    20     7     8   ar
    21     8     9   ar
    22     9    10   ar
    23    10     1   ar
    24     9     4   ar
    25    21    17   ar
    26    15    16    1
    27    21    22    1
@<TRIPOS>MOLECULE
*****
 25 27 0 0 0
SMALL
GASTEIGER

@<TRIPOS>ATOM
      1 C          63.0681   82.4066   12.7320 C.ar    1  UNL1        0.0347
      2 C          63.8008   82.7043   14.0065 C.ar    1  UNL1        0.0028
      3 C          64.0868   84.1252   14.3930 C.ar    1  UNL1        0.0001
      4 C          63.6401   85.2484   13.5048 C.ar    1  UNL1       -0.0002
      5 C          63.9261   86.6693   13.8913 C.ar    1  UNL1       -0.0017
      6 C          63.4795   87.7925   13.0032 C.ar    1  UNL1        0.0070
      7 C          62.7468   87.4949   11.7285 C.ar    1  UNL1       -0.0017
      8 C          62.4608   86.0740   11.3420 C.ar    1  UNL1       -0.0002
      9 C          62.9075   84.9507   12.2303 C.ar    1  UNL1        0.0001
     10 C          62.6215   83.5299   11.8438 C.ar    1  UNL1        0.0028
     11 C          62.3174   80.0058   13.3816 C.3     1  UNL1        0.0773
     12 C          62.7821   80.9858   12.3455 C.2     1  UNL1        0.1735
     13 O          62.9609   80.5449   10.9230 O.2     1  UNL1       -0.2913
     14 C          63.7654   89.2133   13.3896 C.3     1  UNL1        0.1410
     15 O          64.8030   88.7396   14.3638 O.3     1  UNL1       -0.3771
     16 H          64.8522   87.7711   14.3382 H       1  UNL1        0.2112
     17 C          62.7279   89.6871   12.4154 C.ar    1  UNL1        0.0825
     18 C          62.9672   90.0509   10.9800 C.ar    1  UNL1        0.1157
     19 N          61.6561   90.4689   10.3831 N.ar    1  UNL1       -0.2228
     20 C          60.6066   90.3635   11.4495 C.ar    1  UNL1        0.1749
     21 N          61.2691   89.8803   12.7056 N.ar    1  UNL1       -0.3361
     22 H          60.8244   89.7184   13.5689 H       1  UNL1        0.1673
     23 C          64.0514   90.6342   13.7760 C.3     1  UNL1        0.0340
     24 C          64.5161   91.6143   12.7399 C.3     1  UNL1        0.0031
     25 C          63.8728   91.0750   15.1987 C.3     1  UNL1        0.0031
@<TRIPOS>BOND
     1    11    12    1
     2    12    13    2
     3    12     1    1
     4     1     2   ar
     5     2     3   ar
     6     3     4   ar
     7     4     5   ar
     8     5     6   ar
     9     6    14    1
    10    14    15    1
    11    14    17    1
    12    17    18   ar
    13    18    19   ar
    14    19    20   ar
    15    20    21   ar
    16    14    23    1
    17    23    24    1
    18    23    25    1
    19     6     7   ar
    20     7     8   ar
    21     8     9   ar
    22     9    10   ar
    23    10     1   ar
    24     9     4   ar
    25    21    17   ar
    26    15    16    1
    27    21    22    1
@<TRIPOS>MOLECULE
*****
 25 27 0 0 0
SMALL
GASTEIGER

@<TRIPOS>ATOM
      1 C          62.9173   82.1906   12.7743 C.ar    1  UNL1        0.0347
      2 C          62.6777   83.0561   13.9757 C.ar    1  UNL1        0.0028
      3 C          62.4506   84.5291   13.8057 C.ar    1  UNL1        0.0001
      4 C          62.4631   85.1365   12.4343 C.ar    1  UNL1       -0.0002
      5 C          62.2361   86.6094   12.2643 C.ar    1  UNL1       -0.0017
      6 C          62.2486   87.2168   10.8929 C.ar    1  UNL1        0.0070
      7 C          62.4883   86.3513    9.6913 C.ar    1  UNL1       -0.0017
      8 C          62.7153   84.8784    9.8614 C.ar    1  UNL1       -0.0002
      9 C          62.7028   84.2710   11.2329 C.ar    1  UNL1        0.0001
     10 C          62.9299   82.7980   11.4029 C.ar    1  UNL1        0.0028
     11 C          62.7761   79.7699   11.8416 C.3     1  UNL1        0.0773
     12 C          63.1444   80.7177   12.9443 C.2     1  UNL1        0.1735
     13 O          63.7398   80.1926   14.2170 O.2     1  UNL1       -0.2913
     14 C          62.0215   88.6898   10.7228 C.3     1  UNL1        0.1410
     15 O          63.1090   88.9721   11.7167 O.3     1  UNL1       -0.3771
     16 H          63.4818   88.1350   12.0345 H       1  UNL1        0.2112
     17 C          60.9341   88.4074    9.7290 C.ar    1  UNL1        0.0825
     18 C          59.8939   87.3326    9.8419 C.ar    1  UNL1        0.1157
     19 N          59.0128   87.4112    8.6305 N.ar    1  UNL1       -0.2228
     20 C          59.5085   88.5346    7.7689 C.ar    1  UNL1        0.1749
     21 N          60.6960   89.1503    8.4479 N.ar    1  UNL1       -0.3361
     22 H          61.2259   89.9088    8.1117 H       1  UNL1        0.1673
     23 C          61.7944   90.1627   10.5528 C.3     1  UNL1        0.0340
     24 C          60.4592   90.7591   10.8863 C.3     1  UNL1        0.0031
     25 C          62.9027   91.0392   10.0493 C.3     1  UNL1        0.0031
@<TRIPOS>BOND
     1    11    12    1
     2    12    13    2
     3    12     1    1
     4     1     2   ar
     5     2     3   ar
     6     3     4   ar
     7     4     5   ar
     8     5     6   ar
     9     6    14    1
    10    14    15    1
    11    14    17    1
    12    17    18   ar
    13    18    19   ar
    14    19    20   ar
    15    20    21   ar
    16    14    23    1
    17    23    24    1
    18    23    25    1
    19     6     7   ar
    20     7     8   ar
    21     8     9   ar
    22     9    10   ar
    23    10     1   ar
    24     9     4   ar
    25    21    17   ar
    26    15    16    1
    27    21    22    1
@<TRIPOS>MOLECULE
*****
 25 27 0 0 0
SMALL
GASTEIGER

@<TRIPOS>ATOM
      1 C          60.2274   88.5945    8.4740 C.ar    1  UNL1        0.0347
      2 C          60.8207   89.6976    9.2993 C.ar    1  UNL1        0.0028
      3 C          61.6618   89.3689   10.4970 C.ar    1  UNL1        0.0001
      4 C          61.9095   87.9372   10.8694 C.ar    1  UNL1       -0.0002
      5 C          62.7506   87.6085   12.0672 C.ar    1  UNL1       -0.0017
      6 C          62.9984   86.1767   12.4396 C.ar    1  UNL1        0.0070
      7 C          62.4050   85.0736   11.6142 C.ar    1  UNL1       -0.0017
      8 C          61.5640   85.4023   10.4165 C.ar    1  UNL1       -0.0002
      9 C          61.3162   86.8341   10.0441 C.ar    1  UNL1        0.0001
     10 C          60.4751   87.1628    8.8464 C.ar    1  UNL1        0.0028
     11 C          59.8519   89.9564    6.2936 C.3     1  UNL1        0.0773
     12 C          59.3863   88.9232    7.2762 C.2     1  UNL1        0.1735
     13 O          58.0797   88.2187    7.0612 O.2     1  UNL1       -0.2913
     14 C          63.8394   85.8481   13.6373 C.3     1  UNL1        0.1410
     15 O          63.9314   87.3071   13.9731 O.3     1  UNL1       -0.3771
     16 H          63.4385   87.8220   13.3152 H       1  UNL1        0.2112
     17 C          63.7474   84.3890   13.3015 C.ar    1  UNL1        0.0825
     18 C          62.7547   83.4157   13.8645 C.ar    1  UNL1        0.1157
     19 N          63.0257   82.0723   13.2547 N.ar    1  UNL1       -0.2228
     20 C          64.1860   82.2154   12.3149 C.ar    1  UNL1        0.1749
     21 N          64.6320   83.6473   12.3438 N.ar    1  UNL1       -0.3361
     22 H          65.3749   84.0326   11.8253 H       1  UNL1        0.1673
     23 C          64.6805   85.5194   14.8350 C.3     1  UNL1        0.0340
     24 C          64.0961   85.6213   16.2127 C.3     1  UNL1        0.0031
     25 C          66.1061   85.0887   14.6550 C.3     1  UNL1        0.0031
@<TRIPOS>BOND
     1    11    12    1
     2    12    13    2
     3    12     1    1
     4     1     2   ar
     5     2     3   ar
     6     3     4   ar
     7     4     5   ar
     8     5     6   ar
     9     6    14    1
    10    14    15    1
    11    14    17    1
    12    17    18   ar
    13    18    19   ar
    14    19    20   ar
    15    20    21   ar
    16    14    23    1
    17    23    24    1
    18    23    25    1
    19     6     7   ar
    20     7     8   ar
    21     8     9   ar
    22     9    10   ar
    23    10     1   ar
    24     9     4   ar
    25    21    17   ar
    26    15    16    1
    27    21    22    1
@<TRIPOS>MOLECULE
*****
 25 27 0 0 0
SMALL
GASTEIGER

@<TRIPOS>ATOM
      1 C          60.2481   88.0484    8.8922 C.ar    1  UNL1        0.0347
      2 C          60.1023   89.5371    9.0032 C.ar    1  UNL1        0.0028
      3 C          60.8702   90.2900   10.0489 C.ar    1  UNL1        0.0001
      4 C          61.7838   89.5542   10.9836 C.ar    1  UNL1       -0.0002
      5 C          62.5516   90.3071   12.0294 C.ar    1  UNL1       -0.0017
      6 C          63.4652   89.5712   12.9641 C.ar    1  UNL1        0.0070
      7 C          63.6110   88.0824   12.8532 C.ar    1  UNL1       -0.0017
      8 C          62.8432   87.3295   11.8075 C.ar    1  UNL1       -0.0002
      9 C          61.9295   88.0654   10.8727 C.ar    1  UNL1        0.0001
     10 C          61.1617   87.3125    9.8269 C.ar    1  UNL1        0.0028
     11 C          59.9028   85.9096    7.4582 C.3     1  UNL1        0.0773
     12 C          59.4803   87.2955    7.8464 C.2     1  UNL1        0.1735
     13 O          58.2899   87.9285    7.1889 O.2     1  UNL1       -0.2913
     14 C          64.2330   90.3241   14.0099 C.3     1  UNL1        0.1410
     15 O          64.6201   91.3505   12.9868 O.3     1  UNL1       -0.3771
     16 H          64.2353   91.1127   12.1287 H       1  UNL1        0.2112
     17 C          63.8460   89.2978   15.0330 C.ar    1  UNL1        0.0825
     18 C          62.8818   89.5003   16.1640 C.ar    1  UNL1        0.1157
     19 N          62.7951   88.2164   16.9347 N.ar    1  UNL1       -0.2228
     20 C          63.7058   87.2204   16.2801 C.ar    1  UNL1        0.1749
     21 N          64.3553   87.8888   15.1047 N.ar    1  UNL1       -0.3361
     22 H          65.0023   87.4752   14.4885 H       1  UNL1        0.1673
     23 C          65.0009   91.0770   15.0556 C.3     1  UNL1        0.0340
     24 C          64.2802   91.6879   16.2207 C.3     1  UNL1        0.0031
     25 C          66.4894   91.2190   14.9362 C.3     1  UNL1        0.0031
@<TRIPOS>BOND
     1    11    12    1
     2    12    13    2
     3    12     1    1
     4     1     2   ar
     5     2     3   ar
     6     3     4   ar
     7     4     5   ar
     8     5     6   ar
     9     6    14    1
    10    14    15    1
    11    14    17    1
    12    17    18   ar
    13    18    19   ar
    14    19    20   ar
    15    20    21   ar
    16    14    23    1
    17    23    24    1
    18    23    25    1
    19     6     7   ar
    20     7     8   ar
    21     8     9   ar
    22     9    10   ar
    23    10     1   ar
    24     9     4   ar
    25    21    17   ar
    26    15    16    1
    27    21    22    1
