@<TRIPOS>MOLECULE
*****
 40 45 0 0 0
SMALL
GASTEIGER

@<TRIPOS>ATOM
      1 N          62.3171   85.8730   10.7436 N.am    1  UNL1       -0.1909
      2 C          62.4643   87.1309   11.5474 C.2     1  UNL1        0.3173
      3 O          63.2339   87.2746   12.8268 O.2     1  UNL1       -0.2516
      4 N          61.7069   88.2198   10.8470 N.am    1  UNL1       -0.2544
      5 C          61.0915   87.6350    9.6104 C.3     1  UNL1        0.1341
      6 C          60.5418   86.9138    8.4155 C.3     1  UNL1        0.0446
      7 C          59.6975   87.6501    7.4180 C.3     1  UNL1        0.0745
      8 N          59.4030   89.1076    7.6154 N.3     1  UNL1       -0.2688
      9 C          59.9526   89.8288    8.8102 C.3     1  UNL1        0.0745
     10 C          60.7969   89.0925    9.8077 C.3     1  UNL1        0.0446
     11 C          61.4686   86.1846    9.5464 C.2     1  UNL1        0.2525
     12 O          61.0676   85.2158    8.4737 O.2     1  UNL1       -0.2724
     13 C          63.2018   82.5524   12.7287 C.ar    1  UNL1        0.1400
     14 C          64.1064   81.8679   11.7472 C.ar    1  UNL1        0.0370
     15 C          64.4145   82.5185   10.4313 C.ar    1  UNL1        0.0044
     16 C          63.8180   83.8535   10.0967 C.ar    1  UNL1        0.0156
     17 C          62.9135   84.5380   11.0781 C.ar    1  UNL1        0.0652
     18 C          62.6054   83.8874   12.3941 C.ar    1  UNL1        0.0522
     19 C          61.5908   81.1845   14.2399 C.3     1  UNL1        0.2525
     20 O          62.8937   81.9019   14.0447 O.3     1  UNL1       -0.4714
     21 C          61.5861   89.6437   11.3032 C.3     1  UNL1        0.1243
     22 C          62.8145   90.4167   11.6820 C.ar    1  UNL1        0.0252
     23 C          63.3567   90.3263   13.0777 C.ar    1  UNL1       -0.0004
     24 C          64.5851   91.0992   13.4566 C.ar    1  UNL1       -0.0001
     25 C          65.2713   91.9626   12.4399 C.ar    1  UNL1        0.0023
     26 C          64.7290   92.0531   11.0443 C.ar    1  UNL1        0.0294
     27 C          63.5006   91.2801   10.6654 C.ar    1  UNL1        0.1377
     28 F          62.9584   91.3705    9.2697 F       1  UNL1       -0.2044
     29 C          58.5587   89.8439    6.6178 C.3     1  UNL1        0.0991
     30 C          59.2092   90.6923    5.5656 C.ar    1  UNL1       -0.0060
     31 C          60.6801   90.5629    5.3015 C.ar    1  UNL1       -0.0014
     32 C          61.3306   91.4114    4.2493 C.ar    1  UNL1        0.0172
     33 C          60.5102   92.3892    3.4613 C.ar    1  UNL1        0.0641
     34 C          59.0393   92.5186    3.7255 C.ar    1  UNL1        0.0172
     35 C          58.3888   91.6702    4.7776 C.ar    1  UNL1       -0.0014
     36 N          61.1607   93.2375    2.4092 N.ar    1  UNL1       -0.3036
     37 C          62.4880   92.9754    1.7615 C.ar    1  UNL1        0.0802
     38 C          62.7458   94.0728    0.7720 C.ar    1  UNL1        0.0205
     39 C          61.5778   95.0133    0.8081 C.ar    1  UNL1        0.0205
     40 C          60.5981   94.4970    1.8199 C.ar    1  UNL1        0.0802
@<TRIPOS>BOND
     1    19    20    1
     2    20    13    1
     3    13    14   ar
     4    14    15   ar
     5    15    16   ar
     6    16    17   ar
     7    17     1    1
     8     1     2   am
     9     2     3    2
    10     2     4   am
    11     4    21    1
    12    21    22    1
    13    22    23   ar
    14    23    24   ar
    15    24    25   ar
    16    25    26   ar
    17    26    27   ar
    18    27    28    1
    19     4     5    1
    20     5     6    1
    21     6     7    1
    22     7     8    1
    23     8    29    1
    24    29    30    1
    25    30    31   ar
    26    31    32   ar
    27    32    33   ar
    28    33    36    1
    29    36    37   ar
    30    37    38   ar
    31    38    39   ar
    32    39    40   ar
    33    33    34   ar
    34    34    35   ar
    35     8     9    1
    36     9    10    1
    37     5    11    1
    38    11    12    2
    39    17    18   ar
    40    18    13   ar
    41    11     1   am
    42    27    22   ar
    43    10     5    1
    44    35    30   ar
    45    40    36   ar
@<TRIPOS>MOLECULE
*****
 40 45 0 0 0
SMALL
GASTEIGER

@<TRIPOS>ATOM
      1 N          63.1837   89.4317   12.3319 N.am    1  UNL1       -0.1909
      2 C          62.9886   87.9462   12.4067 C.2     1  UNL1        0.3173
      3 O          63.6132   87.0245   13.4118 O.2     1  UNL1       -0.2516
      4 N          62.0594   87.5444   11.2999 N.am    1  UNL1       -0.2544
      5 C          61.6801   88.7815   10.5410 C.3     1  UNL1        0.1341
      6 C          61.3921   90.0979    9.8822 C.3     1  UNL1        0.0446
      7 C          60.4784   90.1580    8.6941 C.3     1  UNL1        0.0745
      8 N          59.8526   88.9017    8.1649 N.3     1  UNL1       -0.2688
      9 C          60.1405   87.5853    8.8238 C.3     1  UNL1        0.0745
     10 C          61.0543   87.5252   10.0118 C.3     1  UNL1        0.0446
     11 C          62.3750   89.9479   11.1788 C.2     1  UNL1        0.2525
     12 O          62.2781   91.3791   10.7405 O.2     1  UNL1       -0.2724
     13 C          65.8479   92.0866   13.5979 C.ar    1  UNL1        0.1400
     14 C          65.7453   91.9049   15.0834 C.ar    1  UNL1        0.0370
     15 C          64.7889   90.8989   15.6515 C.ar    1  UNL1        0.0044
     16 C          63.9350   90.0745   14.7344 C.ar    1  UNL1        0.0156
     17 C          64.0376   90.2561   13.2490 C.ar    1  UNL1        0.0652
     18 C          64.9941   91.2622   12.6808 C.ar    1  UNL1        0.0522
     19 C          66.3351   94.0731   11.9958 C.3     1  UNL1        0.2525
     20 O          66.8044   93.0927   13.0296 O.3     1  UNL1       -0.4714
     21 C          61.5915   86.1504   11.0039 C.3     1  UNL1        0.1243
     22 C          62.5428   84.9974   11.1292 C.ar    1  UNL1        0.0252
     23 C          62.7145   84.3069   12.4497 C.ar    1  UNL1       -0.0004
     24 C          63.6658   83.1540   12.5751 C.ar    1  UNL1       -0.0001
     25 C          64.4455   82.6916   11.3800 C.ar    1  UNL1        0.0023
     26 C          64.2739   83.3822   10.0596 C.ar    1  UNL1        0.0294
     27 C          63.3226   84.5351    9.9342 C.ar    1  UNL1        0.1377
     28 F          63.1509   85.2256    8.6137 F       1  UNL1       -0.2044
     29 C          58.9389   88.9619    6.9768 C.3     1  UNL1        0.0991
     30 C          59.1406   90.0152    5.9281 C.ar    1  UNL1       -0.0060
     31 C          60.5161   90.2915    5.3974 C.ar    1  UNL1       -0.0014
     32 C          60.7177   91.3449    4.3487 C.ar    1  UNL1        0.0172
     33 C          59.5439   92.1219    3.8307 C.ar    1  UNL1        0.0641
     34 C          58.1684   91.8455    4.3613 C.ar    1  UNL1        0.0172
     35 C          57.9667   90.7922    5.4100 C.ar    1  UNL1       -0.0014
     36 N          59.7456   93.1752    2.7820 N.ar    1  UNL1       -0.3036
     37 C          59.4082   93.0458    1.3262 C.ar    1  UNL1        0.0802
     38 C          59.7742   94.3335    0.6494 C.ar    1  UNL1        0.0205
     39 C          60.3378   95.2587    1.6869 C.ar    1  UNL1        0.0205
     40 C          60.3201   94.5428    3.0049 C.ar    1  UNL1        0.0802
@<TRIPOS>BOND
     1    19    20    1
     2    20    13    1
     3    13    14   ar
     4    14    15   ar
     5    15    16   ar
     6    16    17   ar
     7    17     1    1
     8     1     2   am
     9     2     3    2
    10     2     4   am
    11     4    21    1
    12    21    22    1
    13    22    23   ar
    14    23    24   ar
    15    24    25   ar
    16    25    26   ar
    17    26    27   ar
    18    27    28    1
    19     4     5    1
    20     5     6    1
    21     6     7    1
    22     7     8    1
    23     8    29    1
    24    29    30    1
    25    30    31   ar
    26    31    32   ar
    27    32    33   ar
    28    33    36    1
    29    36    37   ar
    30    37    38   ar
    31    38    39   ar
    32    39    40   ar
    33    33    34   ar
    34    34    35   ar
    35     8     9    1
    36     9    10    1
    37     5    11    1
    38    11    12    2
    39    17    18   ar
    40    18    13   ar
    41    11     1   am
    42    27    22   ar
    43    10     5    1
    44    35    30   ar
    45    40    36   ar
@<TRIPOS>MOLECULE
*****
 40 45 0 0 0
SMALL
GASTEIGER

@<TRIPOS>ATOM
      1 N          62.8917   84.1737   13.0527 N.am    1  UNL1       -0.1909
      2 C          62.3942   84.8071   11.7872 C.2     1  UNL1        0.3173
      3 O          61.7303   84.0946   10.6465 O.2     1  UNL1       -0.2516
      4 N          62.6772   86.2782   11.8629 N.am    1  UNL1       -0.2544
      5 C          63.3497   86.5541   13.1751 C.3     1  UNL1        0.1341
      6 C          64.0101   86.6760   14.5164 C.3     1  UNL1        0.0446
      7 C          64.4693   88.0170   15.0070 C.3     1  UNL1        0.0745
      8 N          64.2681   89.2361   14.1565 N.3     1  UNL1       -0.2688
      9 C          63.6076   89.1141   12.8153 C.3     1  UNL1        0.0745
     10 C          63.1484   87.7731   12.3246 C.3     1  UNL1        0.0446
     11 C          63.4822   85.2534   13.9105 C.2     1  UNL1        0.2525
     12 O          64.0973   85.0654   15.2656 O.2     1  UNL1       -0.2724
     13 C          61.4164   80.6485   14.1231 C.ar    1  UNL1        0.1400
     14 C          62.6545   79.8021   14.0931 C.ar    1  UNL1        0.0370
     15 C          63.9715   80.4129   13.7162 C.ar    1  UNL1        0.0044
     16 C          64.0506   81.8701   13.3694 C.ar    1  UNL1        0.0156
     17 C          62.8126   82.7165   13.3995 C.ar    1  UNL1        0.0652
     18 C          61.4955   82.1057   13.7763 C.ar    1  UNL1        0.0522
     19 C          58.8192   80.7190   14.1160 C.3     1  UNL1        0.2525
     20 O          60.0993   80.0376   14.5000 O.3     1  UNL1       -0.4714
     21 C          62.3460   87.2951   10.8111 C.3     1  UNL1        0.1243
     22 C          61.4441   86.9275    9.6702 C.ar    1  UNL1        0.0252
     23 C          60.0202   87.3990    9.6580 C.ar    1  UNL1       -0.0004
     24 C          59.1183   87.0316    8.5171 C.ar    1  UNL1       -0.0001
     25 C          59.6403   86.1926    7.3885 C.ar    1  UNL1        0.0023
     26 C          61.0642   85.7212    7.4008 C.ar    1  UNL1        0.0294
     27 C          61.9661   86.0886    8.5416 C.ar    1  UNL1        0.1377
     28 F          63.3900   85.6171    8.5539 F       1  UNL1       -0.2044
     29 C          64.7273   90.5771   14.6473 C.3     1  UNL1        0.0991
     30 C          65.1973   91.6129   13.6695 C.ar    1  UNL1       -0.0060
     31 C          64.6510   91.6282   12.2726 C.ar    1  UNL1       -0.0014
     32 C          65.1210   92.6641   11.2947 C.ar    1  UNL1        0.0172
     33 C          66.1374   93.6846   11.7138 C.ar    1  UNL1        0.0641
     34 C          66.6837   93.6692   13.1107 C.ar    1  UNL1        0.0172
     35 C          66.2137   92.6334   14.0885 C.ar    1  UNL1       -0.0014
     36 N          66.6074   94.7204   10.7360 N.ar    1  UNL1       -0.3036
     37 C          66.4481   96.2049   10.8796 C.ar    1  UNL1        0.0802
     38 C          67.0614   96.8556    9.6752 C.ar    1  UNL1        0.0205
     39 C          67.5999   95.7731    8.7873 C.ar    1  UNL1        0.0205
     40 C          67.3192   94.4535    9.4429 C.ar    1  UNL1        0.0802
@<TRIPOS>BOND
     1    19    20    1
     2    20    13    1
     3    13    14   ar
     4    14    15   ar
     5    15    16   ar
     6    16    17   ar
     7    17     1    1
     8     1     2   am
     9     2     3    2
    10     2     4   am
    11     4    21    1
    12    21    22    1
    13    22    23   ar
    14    23    24   ar
    15    24    25   ar
    16    25    26   ar
    17    26    27   ar
    18    27    28    1
    19     4     5    1
    20     5     6    1
    21     6     7    1
    22     7     8    1
    23     8    29    1
    24    29    30    1
    25    30    31   ar
    26    31    32   ar
    27    32    33   ar
    28    33    36    1
    29    36    37   ar
    30    37    38   ar
    31    38    39   ar
    32    39    40   ar
    33    33    34   ar
    34    34    35   ar
    35     8     9    1
    36     9    10    1
    37     5    11    1
    38    11    12    2
    39    17    18   ar
    40    18    13   ar
    41    11     1   am
    42    27    22   ar
    43    10     5    1
    44    35    30   ar
    45    40    36   ar
