@<TRIPOS>MOLECULE
*****
 12 12 0 0 0
SMALL
GASTEIGER

@<TRIPOS>ATOM
      1 C          63.7493   89.3512   15.5829 C.ar    1  UNL1        0.0102
      2 C          64.3777   88.4796   14.5363 C.ar    1  UNL1       -0.0017
      3 C          64.4002   86.9905   14.7151 C.ar    1  UNL1        0.0006
      4 C          63.7943   86.3729   15.9404 C.ar    1  UNL1        0.0114
      5 C          63.1659   87.2445   16.9870 C.ar    1  UNL1        0.0574
      6 CL         62.5600   86.6269   18.2124 Cl      1  UNL1       -0.0823
      7 C          63.1434   88.7336   16.8082 C.ar    1  UNL1        0.0096
      8 C          63.7267   90.8403   15.4042 C.3     1  UNL1        0.1924
      9 N          64.5238   92.7067   17.0263 N.3     1  UNL1       -0.2135
     10 O          63.4724   91.7333   16.5822 O.3     1  UNL1       -0.2843
     11 H          64.1847   93.2281   17.8347 H       1  UNL1        0.1501
     12 H          64.7302   93.3546   16.2660 H       1  UNL1        0.1501
@<TRIPOS>BOND
     1     9    10    1
     2    10     8    1
     3     8     1    1
     4     1     2   ar
     5     2     3   ar
     6     3     4   ar
     7     4     5   ar
     8     5     6    1
     9     5     7   ar
    10     7     1   ar
    11     9    11    1
    12     9    12    1
@<TRIPOS>MOLECULE
*****
 12 12 0 0 0
SMALL
GASTEIGER

@<TRIPOS>ATOM
      1 C          62.9316   83.4687   14.2956 C.ar    1  UNL1        0.0102
      2 C          62.1331   82.2023   14.3887 C.ar    1  UNL1       -0.0017
      3 C          62.0948   81.2528   13.2281 C.ar    1  UNL1        0.0006
      4 C          62.8551   81.5697   11.9745 C.ar    1  UNL1        0.0114
      5 C          63.6535   82.8360   11.8814 C.ar    1  UNL1        0.0574
      6 CL         64.4138   83.1529   10.6277 Cl      1  UNL1       -0.0823
      7 C          63.6918   83.7855   13.0420 C.ar    1  UNL1        0.0096
      8 C          62.9699   84.4182   15.4562 C.3     1  UNL1        0.1924
      9 N          61.7304   86.0003   17.1026 N.3     1  UNL1       -0.2135
     10 O          61.7290   85.1566   15.8624 O.3     1  UNL1       -0.2843
     11 H          60.8116   86.4258   17.2253 H       1  UNL1        0.1501
     12 H          62.4352   86.7324   17.0150 H       1  UNL1        0.1501
@<TRIPOS>BOND
     1     9    10    1
     2    10     8    1
     3     8     1    1
     4     1     2   ar
     5     2     3   ar
     6     3     4   ar
     7     4     5   ar
     8     5     6    1
     9     5     7   ar
    10     7     1   ar
    11     9    11    1
    12     9    12    1
@<TRIPOS>MOLECULE
*****
 12 12 0 0 0
SMALL
GASTEIGER

@<TRIPOS>ATOM
      1 C          62.8892   83.9529   14.3269 C.ar    1  UNL1        0.0102
      2 C          63.0882   84.5329   12.9580 C.ar    1  UNL1       -0.0017
      3 C          62.9594   83.6578   11.7466 C.ar    1  UNL1        0.0006
      4 C          62.6316   82.2026   11.9041 C.ar    1  UNL1        0.0114
      5 C          62.4327   81.6225   13.2730 C.ar    1  UNL1        0.0574
      6 CL         62.1049   80.1672   13.4305 Cl      1  UNL1       -0.0823
      7 C          62.5615   82.4977   14.4844 C.ar    1  UNL1        0.0096
      8 C          63.0181   84.8281   15.5383 C.3     1  UNL1        0.1924
      9 N          61.8468   86.2861   17.3416 N.3     1  UNL1       -0.2135
     10 O          61.8074   85.1497   16.3633 O.3     1  UNL1       -0.2843
     11 H          60.9448   86.3612   17.8120 H       1  UNL1        0.1501
     12 H          62.0450   87.1551   16.8457 H       1  UNL1        0.1501
@<TRIPOS>BOND
     1     9    10    1
     2    10     8    1
     3     8     1    1
     4     1     2   ar
     5     2     3   ar
     6     3     4   ar
     7     4     5   ar
     8     5     6    1
     9     5     7   ar
    10     7     1   ar
    11     9    11    1
    12     9    12    1
@<TRIPOS>MOLECULE
*****
 12 12 0 0 0
SMALL
GASTEIGER

@<TRIPOS>ATOM
      1 C          63.8802   83.6809   12.9107 C.ar    1  UNL1        0.0102
      2 C          64.5790   82.8888   11.8457 C.ar    1  UNL1       -0.0017
      3 C          64.2520   83.1229   10.4006 C.ar    1  UNL1        0.0006
      4 C          63.2261   84.1490   10.0205 C.ar    1  UNL1        0.0114
      5 C          62.5273   84.9411   11.0855 C.ar    1  UNL1        0.0574
      6 CL         61.5013   85.9673   10.7054 Cl      1  UNL1       -0.0823
      7 C          62.8543   84.7071   12.5305 C.ar    1  UNL1        0.0096
      8 C          64.2072   83.4469   14.3557 C.3     1  UNL1        0.1924
      9 N          62.3235   81.7093   14.7828 N.3     1  UNL1       -0.2135
     10 O          63.1831   82.8390   15.2676 O.3     1  UNL1       -0.2843
     11 H          61.6887   81.4214   15.5274 H       1  UNL1        0.1501
     12 H          62.9150   80.9220   14.5168 H       1  UNL1        0.1501
@<TRIPOS>BOND
     1     9    10    1
     2    10     8    1
     3     8     1    1
     4     1     2   ar
     5     2     3   ar
     6     3     4   ar
     7     4     5   ar
     8     5     6    1
     9     5     7   ar
    10     7     1   ar
    11     9    11    1
    12     9    12    1
@<TRIPOS>MOLECULE
*****
 12 12 0 0 0
SMALL
GASTEIGER

@<TRIPOS>ATOM
      1 C          64.5295   91.3374   13.8100 C.ar    1  UNL1        0.0102
      2 C          65.7094   92.2091   13.4971 C.ar    1  UNL1       -0.0017
      3 C          65.9604   92.6535   12.0866 C.ar    1  UNL1        0.0006
      4 C          65.0316   92.2262   10.9890 C.ar    1  UNL1        0.0114
      5 C          63.8517   91.3545   11.3020 C.ar    1  UNL1        0.0574
      6 CL         62.9228   90.9272   10.2044 Cl      1  UNL1       -0.0823
      7 C          63.6007   90.9101   12.7125 C.ar    1  UNL1        0.0096
      8 C          64.2785   90.8930   15.2205 C.3     1  UNL1        0.1924
      9 N          64.5806   92.7353   17.0273 N.3     1  UNL1       -0.2135
     10 O          63.6857   91.8482   16.2136 O.3     1  UNL1       -0.2843
     11 H          64.0134   93.3152   17.6457 H       1  UNL1        0.1501
     12 H          65.1241   93.3330   16.4046 H       1  UNL1        0.1501
@<TRIPOS>BOND
     1     9    10    1
     2    10     8    1
     3     8     1    1
     4     1     2   ar
     5     2     3   ar
     6     3     4   ar
     7     4     5   ar
     8     5     6    1
     9     5     7   ar
    10     7     1   ar
    11     9    11    1
    12     9    12    1
@<TRIPOS>MOLECULE
*****
 12 12 0 0 0
SMALL
GASTEIGER

@<TRIPOS>ATOM
      1 C          61.2660   86.3727    9.6614 C.ar    1  UNL1        0.0102
      2 C          62.0261   85.9696    8.4327 C.ar    1  UNL1       -0.0017
      3 C          63.1162   84.9436    8.5280 C.ar    1  UNL1        0.0006
      4 C          63.4461   84.3207    9.8520 C.ar    1  UNL1        0.0114
      5 C          62.6860   84.7238   11.0807 C.ar    1  UNL1        0.0574
      6 CL         63.0159   84.1008   12.4048 Cl      1  UNL1       -0.0823
      7 C          61.5959   85.7498   10.9854 C.ar    1  UNL1        0.0096
      8 C          60.1760   87.3987    9.5660 C.3     1  UNL1        0.1924
      9 N          58.4129   86.6808    7.7979 N.3     1  UNL1       -0.2135
     10 O          59.4774   87.6316    8.2593 O.3     1  UNL1       -0.2843
     11 H          58.0485   86.9897    6.8967 H       1  UNL1        0.1501
     12 H          57.6562   86.6599    8.4816 H       1  UNL1        0.1501
@<TRIPOS>BOND
     1     9    10    1
     2    10     8    1
     3     8     1    1
     4     1     2   ar
     5     2     3   ar
     6     3     4   ar
     7     4     5   ar
     8     5     6    1
     9     5     7   ar
    10     7     1   ar
    11     9    11    1
    12     9    12    1
@<TRIPOS>MOLECULE
*****
 12 12 0 0 0
SMALL
GASTEIGER

@<TRIPOS>ATOM
      1 C          62.4932   84.9262   10.9575 C.ar    1  UNL1        0.0102
      2 C          63.2487   84.2447    9.8554 C.ar    1  UNL1       -0.0017
      3 C          64.2516   83.1781   10.1816 C.ar    1  UNL1        0.0006
      4 C          64.4991   82.7929   11.6100 C.ar    1  UNL1        0.0114
      5 C          63.7436   83.4744   12.7122 C.ar    1  UNL1        0.0574
      6 CL         63.9910   83.0892   14.1407 Cl      1  UNL1       -0.0823
      7 C          62.7406   84.5410   12.3859 C.ar    1  UNL1        0.0096
      8 C          61.4902   85.9928   10.6313 C.3     1  UNL1        0.1924
      9 N          59.9761   87.8869   11.5638 N.3     1  UNL1       -0.2135
     10 O          61.2732   87.1338   11.5805 O.3     1  UNL1       -0.2843
     11 H          60.0016   88.6236   12.2688 H       1  UNL1        0.1501
     12 H          59.2087   87.2469   11.7683 H       1  UNL1        0.1501
@<TRIPOS>BOND
     1     9    10    1
     2    10     8    1
     3     8     1    1
     4     1     2   ar
     5     2     3   ar
     6     3     4   ar
     7     4     5   ar
     8     5     6    1
     9     5     7   ar
    10     7     1   ar
    11     9    11    1
    12     9    12    1
@<TRIPOS>MOLECULE
*****
 12 12 0 0 0
SMALL
GASTEIGER

@<TRIPOS>ATOM
      1 C          61.5934   86.5139   10.4927 C.ar    1  UNL1        0.0102
      2 C          62.0815   86.4659    9.0751 C.ar    1  UNL1       -0.0017
      3 C          62.9859   85.3549    8.6305 C.ar    1  UNL1        0.0006
      4 C          63.4021   84.2918    9.6033 C.ar    1  UNL1        0.0114
      5 C          62.9140   84.3397   11.0209 C.ar    1  UNL1        0.0574
      6 CL         63.3302   83.2766   11.9938 Cl      1  UNL1       -0.0823
      7 C          62.0096   85.4508   11.4655 C.ar    1  UNL1        0.0096
      8 C          60.6890   87.6249   10.9373 C.3     1  UNL1        0.1924
      9 N          60.3061   89.6756   12.4858 N.3     1  UNL1       -0.2135
     10 O          61.2386   88.7594   11.7502 O.3     1  UNL1       -0.2843
     11 H          60.8467   90.3841   12.9820 H       1  UNL1        0.1501
     12 H          59.7572   89.1362   13.1552 H       1  UNL1        0.1501
@<TRIPOS>BOND
     1     9    10    1
     2    10     8    1
     3     8     1    1
     4     1     2   ar
     5     2     3   ar
     6     3     4   ar
     7     4     5   ar
     8     5     6    1
     9     5     7   ar
    10     7     1   ar
    11     9    11    1
    12     9    12    1
@<TRIPOS>MOLECULE
*****
 12 12 0 0 0
SMALL
GASTEIGER

@<TRIPOS>ATOM
      1 C          60.7812   88.1476    9.5076 C.ar    1  UNL1        0.0102
      2 C          59.5872   87.8827    8.6392 C.ar    1  UNL1       -0.0017
      3 C          59.5718   86.6911    7.7283 C.ar    1  UNL1        0.0006
      4 C          60.7504   85.7643    7.6858 C.ar    1  UNL1        0.0114
      5 C          61.9445   86.0292    8.5542 C.ar    1  UNL1        0.0574
      6 CL         63.1232   85.1024    8.5117 Cl      1  UNL1       -0.0823
      7 C          61.9598   87.2209    9.4651 C.ar    1  UNL1        0.0096
      8 C          60.7966   89.3393   10.4185 C.3     1  UNL1        0.1924
      9 N          59.2617   88.4995   12.3391 N.3     1  UNL1       -0.2135
     10 O          60.5255   89.1669   11.8837 O.3     1  UNL1       -0.2843
     11 H          59.2424   88.4676   13.3585 H       1  UNL1        0.1501
     12 H          59.2261   87.5499   11.9685 H       1  UNL1        0.1501
@<TRIPOS>BOND
     1     9    10    1
     2    10     8    1
     3     8     1    1
     4     1     2   ar
     5     2     3   ar
     6     3     4   ar
     7     4     5   ar
     8     5     6    1
     9     5     7   ar
    10     7     1   ar
    11     9    11    1
    12     9    12    1
