@<TRIPOS>MOLECULE
*****
 26 29 0 0 0
SMALL
GASTEIGER

@<TRIPOS>ATOM
      1 N          64.0484   90.7449   14.5025 N.ar    1  UNL1       -0.2954
      2 C          63.7597   90.7426   13.0306 C.ar    1  UNL1        0.2014
      3 N          64.7355   91.6673   12.3654 N.ar    1  UNL1       -0.2136
      4 C          65.6273   92.2412   13.4263 C.ar    1  UNL1        0.0999
      5 C          66.7712   93.2092   13.3602 C.ar    1  UNL1        0.0207
      6 C          67.4904   93.6071   14.6149 C.ar    1  UNL1        0.0016
      7 C          67.0657   93.0370   15.9357 C.ar    1  UNL1        0.0016
      8 C          65.9218   92.0690   16.0018 C.ar    1  UNL1        0.0188
      9 C          65.2026   91.6711   14.7471 C.ar    1  UNL1        0.0801
     10 N          62.6840   89.9539   12.3443 N.pl3   1  UNL1       -0.2781
     11 C          61.2641   90.3920   12.1394 C.3     1  UNL1        0.0950
     12 C          60.5418   89.2976   11.4109 C.3     1  UNL1        0.0392
     13 C          61.5154   88.1831   11.1655 C.3     1  UNL1        0.0792
     14 C          62.8393   88.5888   11.7424 C.3     1  UNL1        0.1095
     15 N          61.2174   86.8901   10.4661 N.3     1  UNL1       -0.2699
     16 C          61.7583   85.6011   11.0102 C.3     1  UNL1        0.0897
     17 C          60.3787   86.8860    9.2226 C.3     1  UNL1        0.0897
     18 C          63.3121   89.9590   15.5467 C.3     1  UNL1        0.1354
     19 C          63.9420   85.5157   15.8792 C.ar    1  UNL1        0.1387
     20 C          63.1299   86.2376   16.9135 C.ar    1  UNL1        0.0366
     21 C          62.9200   87.7187   16.8026 C.ar    1  UNL1        0.0007
     22 C          63.5220   88.4780   15.6575 C.ar    1  UNL1        0.0007
     23 C          64.3341   87.7560   14.6233 C.ar    1  UNL1        0.0007
     24 C          64.5440   86.2750   14.7342 C.ar    1  UNL1        0.0366
     25 C          63.9989   83.1627   14.7792 C.3     1  UNL1        0.2525
     26 O          64.1519   84.0346   15.9901 O.3     1  UNL1       -0.4714
@<TRIPOS>BOND
     1    25    26    1
     2    26    19    1
     3    19    20   ar
     4    20    21   ar
     5    21    22   ar
     6    22    18    1
     7    18     1    1
     8     1     2   ar
     9     2    10    1
    10    10    11    1
    11    11    12    1
    12    12    13    1
    13    13    15    1
    14    15    16    1
    15    15    17    1
    16    13    14    1
    17     2     3   ar
    18     3     4   ar
    19     4     5   ar
    20     5     6   ar
    21     6     7   ar
    22     7     8   ar
    23     8     9   ar
    24    22    23   ar
    25    23    24   ar
    26    24    19   ar
    27     9     1   ar
    28    14    10    1
    29     9     4   ar
@<TRIPOS>MOLECULE
*****
 26 29 0 0 0
SMALL
GASTEIGER

@<TRIPOS>ATOM
      1 N          63.3833   87.5216   12.8242 N.ar    1  UNL1       -0.2954
      2 C          63.3304   89.0195   12.7653 C.ar    1  UNL1        0.2014
      3 N          62.5713   89.4083   11.5314 N.ar    1  UNL1       -0.2136
      4 C          62.1550   88.1507   10.8277 C.ar    1  UNL1        0.0999
      5 C          61.3838   87.9167    9.5626 C.ar    1  UNL1        0.0207
      6 C          61.1144   86.5166    9.0966 C.ar    1  UNL1        0.0016
      7 C          61.6162   85.3506    9.8956 C.ar    1  UNL1        0.0016
      8 C          62.3874   85.5846   11.1607 C.ar    1  UNL1        0.0188
      9 C          62.6568   86.9846   11.6267 C.ar    1  UNL1        0.0801
     10 N          63.9312   89.9629   13.7648 N.pl3   1  UNL1       -0.2781
     11 C          63.5170   90.1091   15.1990 C.3     1  UNL1        0.0950
     12 C          64.3815   91.1623   15.8262 C.3     1  UNL1        0.0392
     13 C          65.3301   91.6671   14.7796 C.3     1  UNL1        0.0792
     14 C          65.0518   90.9258   13.5056 C.3     1  UNL1        0.1095
     15 N          66.3737   92.7270   14.9730 N.3     1  UNL1       -0.2699
     16 C          67.2250   92.7249   16.2080 C.3     1  UNL1        0.0897
     17 C          66.5660   93.7890   13.9313 C.3     1  UNL1        0.0897
     18 C          64.0462   86.7041   13.8930 C.3     1  UNL1        0.1354
     19 C          63.1560   82.3067   14.2398 C.ar    1  UNL1        0.1387
     20 C          64.3050   82.7751   13.3969 C.ar    1  UNL1        0.0366
     21 C          64.6017   84.2409   13.2813 C.ar    1  UNL1        0.0007
     22 C          63.7494   85.2383   14.0086 C.ar    1  UNL1        0.0007
     23 C          62.6005   84.7698   14.8515 C.ar    1  UNL1        0.0007
     24 C          62.3038   83.3040   14.9670 C.ar    1  UNL1        0.0366
     25 C          62.3579   80.0808   13.1632 C.3     1  UNL1        0.2525
     26 O          62.8593   80.8408   14.3553 O.3     1  UNL1       -0.4714
@<TRIPOS>BOND
     1    25    26    1
     2    26    19    1
     3    19    20   ar
     4    20    21   ar
     5    21    22   ar
     6    22    18    1
     7    18     1    1
     8     1     2   ar
     9     2    10    1
    10    10    11    1
    11    11    12    1
    12    12    13    1
    13    13    15    1
    14    15    16    1
    15    15    17    1
    16    13    14    1
    17     2     3   ar
    18     3     4   ar
    19     4     5   ar
    20     5     6   ar
    21     6     7   ar
    22     7     8   ar
    23     8     9   ar
    24    22    23   ar
    25    23    24   ar
    26    24    19   ar
    27     9     1   ar
    28    14    10    1
    29     9     4   ar
@<TRIPOS>MOLECULE
*****
 26 29 0 0 0
SMALL
GASTEIGER

@<TRIPOS>ATOM
      1 N          62.9111   86.7705   12.0650 N.ar    1  UNL1       -0.2954
      2 C          63.6251   87.4268   13.2093 C.ar    1  UNL1        0.2014
      3 N          64.0630   86.3524   14.1599 N.ar    1  UNL1       -0.2136
      4 C          63.6197   85.0319   13.6032 C.ar    1  UNL1        0.0999
      5 C          63.7723   83.6277   14.1079 C.ar    1  UNL1        0.0207
      6 C          63.2130   82.4819   13.3178 C.ar    1  UNL1        0.0016
      7 C          62.5010   82.7403   12.0231 C.ar    1  UNL1        0.0016
      8 C          62.3484   84.1445   11.5184 C.ar    1  UNL1        0.0188
      9 C          62.9077   85.2904   12.3084 C.ar    1  UNL1        0.0801
     10 N          63.8599   88.8992   13.3741 N.pl3   1  UNL1       -0.2781
     11 C          63.3996   89.9758   12.4365 C.3     1  UNL1        0.0950
     12 C          63.8515   91.2954   12.9883 C.3     1  UNL1        0.0392
     13 C          64.5911   91.0343   14.2669 C.3     1  UNL1        0.0792
     14 C          64.5962   89.5534   14.5053 C.3     1  UNL1        0.1095
     15 N          65.2158   92.0720   15.1518 N.3     1  UNL1       -0.2699
     16 C          64.7716   92.2073   16.5781 C.3     1  UNL1        0.0897
     17 C          66.2846   92.9744   14.6103 C.3     1  UNL1        0.0897
     18 C          62.3065   87.4712   10.8846 C.3     1  UNL1        0.1354
     19 C          61.2620   85.1429    7.1781 C.ar    1  UNL1        0.1387
     20 C          60.1972   85.9050    7.9101 C.ar    1  UNL1        0.0366
     21 C          60.5455   86.6811    9.1455 C.ar    1  UNL1        0.0007
     22 C          61.9584   86.6951    9.6491 C.ar    1  UNL1        0.0007
     23 C          63.0230   85.9331    8.9171 C.ar    1  UNL1        0.0007
     24 C          62.6748   85.1570    7.6817 C.ar    1  UNL1        0.0366
     25 C          61.9617   84.1033    4.9022 C.3     1  UNL1        0.2525
     26 O          60.9137   84.3668    5.9426 O.3     1  UNL1       -0.4714
@<TRIPOS>BOND
     1    25    26    1
     2    26    19    1
     3    19    20   ar
     4    20    21   ar
     5    21    22   ar
     6    22    18    1
     7    18     1    1
     8     1     2   ar
     9     2    10    1
    10    10    11    1
    11    11    12    1
    12    12    13    1
    13    13    15    1
    14    15    16    1
    15    15    17    1
    16    13    14    1
    17     2     3   ar
    18     3     4   ar
    19     4     5   ar
    20     5     6   ar
    21     6     7   ar
    22     7     8   ar
    23     8     9   ar
    24    22    23   ar
    25    23    24   ar
    26    24    19   ar
    27     9     1   ar
    28    14    10    1
    29     9     4   ar
@<TRIPOS>MOLECULE
*****
 26 29 0 0 0
SMALL
GASTEIGER

@<TRIPOS>ATOM
      1 N          63.7201   82.7978   11.9326 N.ar    1  UNL1       -0.2954
      2 C          63.6160   82.9177   13.4242 C.ar    1  UNL1        0.2014
      3 N          63.1496   81.5981   13.9638 N.ar    1  UNL1       -0.2136
      4 C          62.9654   80.6627   12.8057 C.ar    1  UNL1        0.0999
      5 C          62.5222   79.2316   12.7321 C.ar    1  UNL1        0.0207
      6 C          62.4315   78.5420   11.4032 C.ar    1  UNL1        0.0016
      7 C          62.7841   79.2835   10.1478 C.ar    1  UNL1        0.0016
      8 C          63.2273   80.7146   10.2214 C.ar    1  UNL1        0.0188
      9 C          63.3180   81.4042   11.5504 C.ar    1  UNL1        0.0801
     10 N          63.9242   84.1421   14.2340 N.pl3   1  UNL1       -0.2781
     11 C          65.2152   84.9057   14.2212 C.3     1  UNL1        0.0950
     12 C          65.0845   86.0535   15.1781 C.3     1  UNL1        0.0392
     13 C          63.7126   85.9993   15.7822 C.3     1  UNL1        0.0792
     14 C          62.9955   84.8180   15.1987 C.3     1  UNL1        0.1095
     15 N          63.1556   86.9580   16.7925 N.3     1  UNL1       -0.2699
     16 C          63.2034   88.4343   16.5314 C.3     1  UNL1        0.0897
     17 C          62.5507   86.4403   18.0637 C.3     1  UNL1        0.0897
     18 C          64.1507   83.8814   10.9889 C.3     1  UNL1        0.1354
     19 C          61.0810   86.5927    9.1246 C.ar    1  UNL1        0.1387
     20 C          62.0703   85.8718    8.2576 C.ar    1  UNL1        0.0366
     21 C          63.0935   84.9681    8.8791 C.ar    1  UNL1        0.0007
     22 C          63.1275   84.7851   10.3676 C.ar    1  UNL1        0.0007
     23 C          62.1381   85.5060   11.2345 C.ar    1  UNL1        0.0007
     24 C          61.1149   86.4097   10.6130 C.ar    1  UNL1        0.0366
     25 C          58.8914   86.9117    7.7629 C.3     1  UNL1        0.2525
     26 O          60.0578   87.4964    8.5031 O.3     1  UNL1       -0.4714
@<TRIPOS>BOND
     1    25    26    1
     2    26    19    1
     3    19    20   ar
     4    20    21   ar
     5    21    22   ar
     6    22    18    1
     7    18     1    1
     8     1     2   ar
     9     2    10    1
    10    10    11    1
    11    11    12    1
    12    12    13    1
    13    13    15    1
    14    15    16    1
    15    15    17    1
    16    13    14    1
    17     2     3   ar
    18     3     4   ar
    19     4     5   ar
    20     5     6   ar
    21     6     7   ar
    22     7     8   ar
    23     8     9   ar
    24    22    23   ar
    25    23    24   ar
    26    24    19   ar
    27     9     1   ar
    28    14    10    1
    29     9     4   ar
@<TRIPOS>MOLECULE
*****
 26 29 0 0 0
SMALL
GASTEIGER

@<TRIPOS>ATOM
      1 N          63.3569   84.3254   12.1083 N.ar    1  UNL1       -0.2954
      2 C          63.3600   85.0771   13.4064 C.ar    1  UNL1        0.2014
      3 N          63.0378   84.1071   14.5043 N.ar    1  UNL1       -0.2136
      4 C          62.8356   82.7561   13.8848 C.ar    1  UNL1        0.0999
      5 C          62.4973   81.4205   14.4778 C.ar    1  UNL1        0.0207
      6 C          62.3563   80.2198   13.5899 C.ar    1  UNL1        0.0016
      7 C          62.5535   80.3547   12.1091 C.ar    1  UNL1        0.0016
      8 C          62.8917   81.6903   11.5161 C.ar    1  UNL1        0.0188
      9 C          63.0328   82.8910   12.4039 C.ar    1  UNL1        0.0801
     10 N          63.6367   86.5414   13.5766 N.pl3   1  UNL1       -0.2781
     11 C          64.3424   87.1762   14.7381 C.3     1  UNL1        0.0950
     12 C          64.3981   88.6553   14.4946 C.3     1  UNL1        0.0392
     13 C          63.7268   88.9346   13.1826 C.3     1  UNL1        0.0792
     14 C          63.2562   87.6282   12.6153 C.3     1  UNL1        0.1095
     15 N          63.5561   90.2836   12.5491 N.3     1  UNL1       -0.2699
     16 C          62.4904   90.4972   11.5153 C.3     1  UNL1        0.0897
     17 C          64.4510   91.4188   12.9495 C.3     1  UNL1        0.0897
     18 C          63.6299   84.9062   10.7525 C.3     1  UNL1        0.1354
     19 C          60.2473   86.5685    8.2938 C.ar    1  UNL1        0.1387
     20 C          60.2379   86.7254    9.7856 C.ar    1  UNL1        0.0366
     21 C          61.3654   86.1713   10.6051 C.ar    1  UNL1        0.0007
     22 C          62.5024   85.4603    9.9330 C.ar    1  UNL1        0.0007
     23 C          62.5118   85.3034    8.4412 C.ar    1  UNL1        0.0007
     24 C          61.3843   85.8575    7.6217 C.ar    1  UNL1        0.0366
     25 C          59.0657   88.5901    7.1682 C.3     1  UNL1        0.2525
     26 O          59.1198   87.1226    7.4743 O.3     1  UNL1       -0.4714
@<TRIPOS>BOND
     1    25    26    1
     2    26    19    1
     3    19    20   ar
     4    20    21   ar
     5    21    22   ar
     6    22    18    1
     7    18     1    1
     8     1     2   ar
     9     2    10    1
    10    10    11    1
    11    11    12    1
    12    12    13    1
    13    13    15    1
    14    15    16    1
    15    15    17    1
    16    13    14    1
    17     2     3   ar
    18     3     4   ar
    19     4     5   ar
    20     5     6   ar
    21     6     7   ar
    22     7     8   ar
    23     8     9   ar
    24    22    23   ar
    25    23    24   ar
    26    24    19   ar
    27     9     1   ar
    28    14    10    1
    29     9     4   ar
@<TRIPOS>MOLECULE
*****
 26 29 0 0 0
SMALL
GASTEIGER

@<TRIPOS>ATOM
      1 N          63.9651   91.1842   12.6330 N.ar    1  UNL1       -0.2954
      2 C          64.7030   90.6639   13.8308 C.ar    1  UNL1        0.2014
      3 N          66.1044   91.1964   13.7792 N.ar    1  UNL1       -0.2136
      4 C          66.2326   92.0457   12.5495 C.ar    1  UNL1        0.0999
      5 C          67.3824   92.8250   11.9833 C.ar    1  UNL1        0.0207
      6 C          67.2101   93.5967   10.7087 C.ar    1  UNL1        0.0016
      7 C          65.8879   93.5891   10.0002 C.ar    1  UNL1        0.0016
      8 C          64.7381   92.8099   10.5664 C.ar    1  UNL1        0.0188
      9 C          64.9104   92.0382   11.8411 C.ar    1  UNL1        0.0801
     10 N          64.1387   89.7685   14.8937 N.pl3   1  UNL1       -0.2781
     11 C          63.4596   90.2156   16.1542 C.3     1  UNL1        0.0950
     12 C          63.0555   88.9921   16.9222 C.3     1  UNL1        0.0392
     13 C          63.4848   87.7888   16.1363 C.3     1  UNL1        0.0792
     14 C          64.1542   88.2686   14.8826 C.3     1  UNL1        0.1095
     15 N          63.2806   86.3570   16.5342 N.3     1  UNL1       -0.2699
     16 C          63.9375   85.2597   15.7503 C.3     1  UNL1        0.0897
     17 C          62.4196   86.0225   17.7160 C.3     1  UNL1        0.0897
     18 C          62.5333   90.9003   12.2877 C.3     1  UNL1        0.1354
     19 C          61.5136   87.4659    9.5646 C.ar    1  UNL1        0.1387
     20 C          62.3594   87.2328   10.7813 C.ar    1  UNL1        0.0366
     21 C          62.6993   88.3776   11.6890 C.ar    1  UNL1        0.0007
     22 C          62.1934   89.7556   11.3800 C.ar    1  UNL1        0.0007
     23 C          61.3477   89.9886   10.1633 C.ar    1  UNL1        0.0007
     24 C          61.0078   88.8438    9.2556 C.ar    1  UNL1        0.0366
     25 C          59.8828   86.3273    7.8929 C.3     1  UNL1        0.2525
     26 O          61.1738   86.3211    8.6569 O.3     1  UNL1       -0.4714
@<TRIPOS>BOND
     1    25    26    1
     2    26    19    1
     3    19    20   ar
     4    20    21   ar
     5    21    22   ar
     6    22    18    1
     7    18     1    1
     8     1     2   ar
     9     2    10    1
    10    10    11    1
    11    11    12    1
    12    12    13    1
    13    13    15    1
    14    15    16    1
    15    15    17    1
    16    13    14    1
    17     2     3   ar
    18     3     4   ar
    19     4     5   ar
    20     5     6   ar
    21     6     7   ar
    22     7     8   ar
    23     8     9   ar
    24    22    23   ar
    25    23    24   ar
    26    24    19   ar
    27     9     1   ar
    28    14    10    1
    29     9     4   ar
@<TRIPOS>MOLECULE
*****
 26 29 0 0 0
SMALL
GASTEIGER

@<TRIPOS>ATOM
      1 N          62.1518   88.0365   11.1241 N.ar    1  UNL1       -0.2954
      2 C          62.4314   89.5101   11.1126 C.ar    1  UNL1        0.2014
      3 N          61.6561   90.1202    9.9827 N.ar    1  UNL1       -0.2136
      4 C          60.8974   89.0236    9.2958 C.ar    1  UNL1        0.0999
      5 C          59.9671   89.0313    8.1192 C.ar    1  UNL1        0.0207
      6 C          59.3432   87.7512    7.6480 C.ar    1  UNL1        0.0016
      7 C          59.6496   86.4633    8.3534 C.ar    1  UNL1        0.0016
      8 C          60.5799   86.4556    9.5300 C.ar    1  UNL1        0.0188
      9 C          61.2038   87.7357   10.0012 C.ar    1  UNL1        0.0801
     10 N          63.3286   90.2448   12.0640 N.pl3   1  UNL1       -0.2781
     11 C          63.5538   89.9016   13.5068 C.3     1  UNL1        0.0950
     12 C          64.5226   90.8963   14.0742 C.3     1  UNL1        0.0392
     13 C          64.8963   91.8543   12.9821 C.3     1  UNL1        0.0792
     14 C          64.1584   91.4516   11.7398 C.3     1  UNL1        0.1095
     15 N          65.8418   93.0117   13.1098 N.3     1  UNL1       -0.2699
     16 C          66.1005   93.9025   11.9311 C.3     1  UNL1        0.0897
     17 C          66.5287   93.2782   14.4164 C.3     1  UNL1        0.0897
     18 C          62.7205   87.0387   12.0890 C.3     1  UNL1        0.1354
     19 C          63.1799   82.7331   10.8639 C.ar    1  UNL1        0.1387
     20 C          63.4933   83.8281    9.8877 C.ar    1  UNL1        0.0366
     21 C          63.3401   85.2633   10.2962 C.ar    1  UNL1        0.0007
     22 C          62.8736   85.6035   11.6806 C.ar    1  UNL1        0.0007
     23 C          62.5602   84.5085   12.6567 C.ar    1  UNL1        0.0007
     24 C          62.7134   83.0733   12.2483 C.ar    1  UNL1        0.0366
     25 C          62.8848   80.2036   11.3783 C.3     1  UNL1        0.2525
     26 O          63.3330   81.2979   10.4554 O.3     1  UNL1       -0.4714
@<TRIPOS>BOND
     1    25    26    1
     2    26    19    1
     3    19    20   ar
     4    20    21   ar
     5    21    22   ar
     6    22    18    1
     7    18     1    1
     8     1     2   ar
     9     2    10    1
    10    10    11    1
    11    11    12    1
    12    12    13    1
    13    13    15    1
    14    15    16    1
    15    15    17    1
    16    13    14    1
    17     2     3   ar
    18     3     4   ar
    19     4     5   ar
    20     5     6   ar
    21     6     7   ar
    22     7     8   ar
    23     8     9   ar
    24    22    23   ar
    25    23    24   ar
    26    24    19   ar
    27     9     1   ar
    28    14    10    1
    29     9     4   ar
@<TRIPOS>MOLECULE
*****
 26 29 0 0 0
SMALL
GASTEIGER

@<TRIPOS>ATOM
      1 N          63.2140   84.2593   13.1304 N.ar    1  UNL1       -0.2954
      2 C          63.0202   84.4856   14.6006 C.ar    1  UNL1        0.2014
      3 N          62.6704   83.1698   15.2299 N.ar    1  UNL1       -0.2136
      4 C          62.6479   82.1302   14.1488 C.ar    1  UNL1        0.0999
      5 C          62.3649   80.6575   14.1783 C.ar    1  UNL1        0.0207
      6 C          62.4179   79.8581   12.9101 C.ar    1  UNL1        0.0016
      7 C          62.7539   80.5315   11.6126 C.ar    1  UNL1        0.0016
      8 C          63.0369   82.0042   11.5831 C.ar    1  UNL1        0.0188
      9 C          62.9839   82.8036   12.8512 C.ar    1  UNL1        0.0801
     10 N          63.1530   85.7975   15.3157 N.pl3   1  UNL1       -0.2781
     11 C          62.8505   86.0469   16.7636 C.3     1  UNL1        0.0950
     12 C          63.1222   87.4938   17.0513 C.3     1  UNL1        0.0392
     13 C          63.5925   88.1386   15.7812 C.3     1  UNL1        0.0792
     14 C          63.6116   87.0902   14.7086 C.3     1  UNL1        0.1095
     15 N          63.9764   89.5789   15.6133 N.3     1  UNL1       -0.2699
     16 C          63.5248   90.5975   16.6174 C.3     1  UNL1        0.0897
     17 C          64.8120   90.0005   14.4411 C.3     1  UNL1        0.0897
     18 C          63.5745   85.3051   12.1174 C.3     1  UNL1        0.1354
     19 C          60.6661   86.3746    8.8544 C.ar    1  UNL1        0.1387
     20 C          61.8713   85.5386    8.5404 C.ar    1  UNL1        0.0366
     21 C          62.8408   85.1821    9.6281 C.ar    1  UNL1        0.0007
     22 C          62.6051   85.6616   11.0298 C.ar    1  UNL1        0.0007
     23 C          61.3998   86.4975   11.3437 C.ar    1  UNL1        0.0007
     24 C          60.4304   86.8540   10.2560 C.ar    1  UNL1        0.0366
     25 C          59.2887   88.1604    7.5644 C.3     1  UNL1        0.2525
     26 O          59.6966   86.7310    7.7668 O.3     1  UNL1       -0.4714
@<TRIPOS>BOND
     1    25    26    1
     2    26    19    1
     3    19    20   ar
     4    20    21   ar
     5    21    22   ar
     6    22    18    1
     7    18     1    1
     8     1     2   ar
     9     2    10    1
    10    10    11    1
    11    11    12    1
    12    12    13    1
    13    13    15    1
    14    15    16    1
    15    15    17    1
    16    13    14    1
    17     2     3   ar
    18     3     4   ar
    19     4     5   ar
    20     5     6   ar
    21     6     7   ar
    22     7     8   ar
    23     8     9   ar
    24    22    23   ar
    25    23    24   ar
    26    24    19   ar
    27     9     1   ar
    28    14    10    1
    29     9     4   ar
@<TRIPOS>MOLECULE
*****
 26 29 0 0 0
SMALL
GASTEIGER

@<TRIPOS>ATOM
      1 N          62.7084   85.0551   12.6365 N.ar    1  UNL1       -0.2954
      2 C          63.6517   85.7546   13.5697 C.ar    1  UNL1        0.2014
      3 N          64.3636   84.7104   14.3777 N.ar    1  UNL1       -0.2136
      4 C          63.8602   83.3656   13.9440 C.ar    1  UNL1        0.0999
      5 C          64.2012   81.9747   14.3899 C.ar    1  UNL1        0.0207
      6 C          63.5192   80.7967   13.7597 C.ar    1  UNL1        0.0016
      7 C          62.4961   81.0097   12.6836 C.ar    1  UNL1        0.0016
      8 C          62.1552   82.4007   12.2377 C.ar    1  UNL1        0.0188
      9 C          62.8372   83.5787   12.8679 C.ar    1  UNL1        0.0801
     10 N          63.8487   87.2378   13.6761 N.pl3   1  UNL1       -0.2781
     11 C          64.3814   87.9731   14.8700 C.3     1  UNL1        0.0950
     12 C          64.4094   89.4359   14.5390 C.3     1  UNL1        0.0392
     13 C          63.8940   89.6046   13.1405 C.3     1  UNL1        0.0792
     14 C          63.5474   88.2462   12.6072 C.3     1  UNL1        0.1095
     15 N          63.7503   90.9038   12.4045 N.3     1  UNL1       -0.2699
     16 C          64.7169   92.0219   12.6609 C.3     1  UNL1        0.0897
     17 C          62.6402   91.0848   11.4122 C.3     1  UNL1        0.0897
     18 C          61.7963   85.7160   11.6459 C.3     1  UNL1        0.1354
     19 C          62.3828   85.0258    7.2381 C.ar    1  UNL1        0.1387
     20 C          63.3954   84.5129    8.2188 C.ar    1  UNL1        0.0366
     21 C          63.1998   84.7430    9.6881 C.ar    1  UNL1        0.0007
     22 C          61.9918   85.4860   10.1767 C.ar    1  UNL1        0.0007
     23 C          60.9793   85.9988    9.1959 C.ar    1  UNL1        0.0007
     24 C          61.1748   85.7687    7.7267 C.ar    1  UNL1        0.0366
     25 C          61.5539   84.0279    4.9869 C.3     1  UNL1        0.2525
     26 O          62.5784   84.7957    5.7688 O.3     1  UNL1       -0.4714
@<TRIPOS>BOND
     1    25    26    1
     2    26    19    1
     3    19    20   ar
     4    20    21   ar
     5    21    22   ar
     6    22    18    1
     7    18     1    1
     8     1     2   ar
     9     2    10    1
    10    10    11    1
    11    11    12    1
    12    12    13    1
    13    13    15    1
    14    15    16    1
    15    15    17    1
    16    13    14    1
    17     2     3   ar
    18     3     4   ar
    19     4     5   ar
    20     5     6   ar
    21     6     7   ar
    22     7     8   ar
    23     8     9   ar
    24    22    23   ar
    25    23    24   ar
    26    24    19   ar
    27     9     1   ar
    28    14    10    1
    29     9     4   ar
