@<TRIPOS>MOLECULE
*****
 17 18 0 0 0
SMALL
GASTEIGER

@<TRIPOS>ATOM
      1 C          61.1769   87.1100   10.3576 C.2     1  UNL1        0.1898
      2 N          61.4633   86.4188   11.6577 N.2     1  UNL1       -0.2199
      3 C          62.3709   85.2583   11.3756 C.2     1  UNL1        0.1003
      4 C          62.9829   84.2220   12.2708 C.2     1  UNL1        0.0569
      5 C          63.8694   83.1596   11.6915 C.2     1  UNL1        0.1364
      6 C          64.1439   83.1337   10.2171 C.2     1  UNL1        0.0172
      7 C          63.5320   84.1700    9.3219 C.3     1  UNL1        0.0765
      8 C          62.6455   85.2324    9.9011 C.2     1  UNL1        0.0833
      9 N          61.9075   86.3768    9.2720 N.2     1  UNL1       -0.2238
     10 O          64.4814   82.1232   12.5867 O.2     1  UNL1       -0.4717
     11 C          63.6013   81.2000   13.3762 C.3     1  UNL1        0.2525
     12 S          60.3117   88.3217   10.1752 S.3     1  UNL1       -0.0757
     13 C          60.9264   89.6899   10.1812 C.3     1  UNL1        0.0652
     14 C          62.4167   89.8430   10.1066 C.3     1  UNL1        0.0121
     15 C          63.1131   90.8403   10.9844 C.3     1  UNL1        0.0009
     16 C          63.5577   89.1297   12.8887 C.3     1  UNL1        0.0000
     17 C          63.3227   90.5413   12.4393 C.3     1  UNL1        0.0000
@<TRIPOS>BOND
     1    16    17    1
     2    17    15    1
     3    15    14    1
     4    14    13    1
     5    13    12    1
     6    12     1    1
     7     1     2    2
     8     2     3    1
     9     3     4    2
    10     4     5    1
    11     5    10    1
    12    10    11    1
    13     5     6    2
    14     6     7    1
    15     7     8    1
    16     8     9    2
    17     9     1    1
    18     8     3    1
@<TRIPOS>MOLECULE
*****
 17 18 0 0 0
SMALL
GASTEIGER

@<TRIPOS>ATOM
      1 C          62.5805   85.5841   11.9446 C.2     1  UNL1        0.1898
      2 N          61.6514   85.2172   10.8256 N.2     1  UNL1       -0.2199
      3 C          61.2038   86.4849   10.1601 C.2     1  UNL1        0.1003
      4 C          60.2865   86.7403    9.0012 C.2     1  UNL1        0.0569
      5 C          60.0216   88.1460    8.5500 C.2     1  UNL1        0.1364
      6 C          60.6741   89.2964    9.2578 C.2     1  UNL1        0.0172
      7 C          61.5914   89.0410   10.4167 C.3     1  UNL1        0.0765
      8 C          61.8563   87.6352   10.8679 C.2     1  UNL1        0.0833
      9 N          62.7071   87.0785   11.9707 N.2     1  UNL1       -0.2238
     10 O          59.1043   88.4015    7.3910 O.2     1  UNL1       -0.4717
     11 C          59.3731   89.5464    6.4599 C.3     1  UNL1        0.2525
     12 S          63.2630   84.6250   12.8742 S.3     1  UNL1       -0.0757
     13 C          64.3739   83.7529   12.3690 C.3     1  UNL1        0.0652
     14 C          64.0617   82.4185   11.7592 C.3     1  UNL1        0.0121
     15 C          62.6900   81.8294   11.9058 C.3     1  UNL1        0.0009
     16 C          61.4567   81.1478   14.0885 C.3     1  UNL1        0.0000
     17 C          62.4176   80.8224   12.9836 C.3     1  UNL1        0.0000
@<TRIPOS>BOND
     1    16    17    1
     2    17    15    1
     3    15    14    1
     4    14    13    1
     5    13    12    1
     6    12     1    1
     7     1     2    2
     8     2     3    1
     9     3     4    2
    10     4     5    1
    11     5    10    1
    12    10    11    1
    13     5     6    2
    14     6     7    1
    15     7     8    1
    16     8     9    2
    17     9     1    1
    18     8     3    1
@<TRIPOS>MOLECULE
*****
 17 18 0 0 0
SMALL
GASTEIGER

@<TRIPOS>ATOM
      1 C          63.7367   85.1863   15.1760 C.2     1  UNL1        0.1898
      2 N          64.2452   86.2201   14.2154 N.2     1  UNL1       -0.2199
      3 C          64.0291   87.5709   14.8308 C.2     1  UNL1        0.1003
      4 C          64.3341   88.9563   14.3434 C.2     1  UNL1        0.0569
      5 C          63.9970   90.1428   15.1969 C.2     1  UNL1        0.1364
      6 C          63.3549   89.9439   16.5379 C.2     1  UNL1        0.0172
      7 C          63.0500   88.5585   17.0253 C.3     1  UNL1        0.0765
      8 C          63.3871   87.3720   16.1718 C.2     1  UNL1        0.0833
      9 N          63.2063   85.8983   16.3851 N.2     1  UNL1       -0.2238
     10 O          64.3019   91.5283   14.7095 O.2     1  UNL1       -0.4717
     11 C          65.7008   91.8910   14.3077 C.3     1  UNL1        0.2525
     12 S          63.7552   83.7014   14.9646 S.3     1  UNL1       -0.0757
     13 C          62.4656   82.9421   14.8636 C.3     1  UNL1        0.0652
     14 C          62.2494   81.9780   13.7350 C.3     1  UNL1        0.0121
     15 C          63.3754   81.6555   12.7979 C.3     1  UNL1        0.0009
     16 C          64.1186   82.7556   10.5646 C.3     1  UNL1        0.0000
     17 C          63.1985   81.8432   11.3202 C.3     1  UNL1        0.0000
@<TRIPOS>BOND
     1    16    17    1
     2    17    15    1
     3    15    14    1
     4    14    13    1
     5    13    12    1
     6    12     1    1
     7     1     2    2
     8     2     3    1
     9     3     4    2
    10     4     5    1
    11     5    10    1
    12    10    11    1
    13     5     6    2
    14     6     7    1
    15     7     8    1
    16     8     9    2
    17     9     1    1
    18     8     3    1
@<TRIPOS>MOLECULE
*****
 17 18 0 0 0
SMALL
GASTEIGER

@<TRIPOS>ATOM
      1 C          63.3927   84.2227   12.8895 C.2     1  UNL1        0.1898
      2 N          62.3071   85.2441   12.7214 N.2     1  UNL1       -0.2199
      3 C          62.1309   85.4961   11.2532 C.2     1  UNL1        0.1003
      4 C          61.2074   86.4020   10.4941 C.2     1  UNL1        0.0569
      5 C          61.2605   86.4421    8.9956 C.2     1  UNL1        0.1364
      6 C          62.2371   85.5764    8.2563 C.2     1  UNL1        0.0172
      7 C          63.1607   84.6705    9.0154 C.3     1  UNL1        0.0765
      8 C          63.1076   84.6304   10.5139 C.2     1  UNL1        0.0833
      9 N          63.8874   83.8434   11.5251 N.2     1  UNL1       -0.2238
     10 O          60.3368   87.3480    8.2364 O.2     1  UNL1       -0.4717
     11 C          59.0558   86.8101    7.6712 C.3     1  UNL1        0.2525
     12 S          63.8953   83.6765   14.1929 S.3     1  UNL1       -0.0757
     13 C          63.2325   84.0745   15.4783 C.3     1  UNL1        0.0652
     14 C          63.5235   85.4133   16.0891 C.3     1  UNL1        0.0121
     15 C          62.5604   86.0161   17.0685 C.3     1  UNL1        0.0009
     16 C          63.0445   88.5604   16.8637 C.3     1  UNL1        0.0000
     17 C          62.8717   87.3351   17.7114 C.3     1  UNL1        0.0000
@<TRIPOS>BOND
     1    16    17    1
     2    17    15    1
     3    15    14    1
     4    14    13    1
     5    13    12    1
     6    12     1    1
     7     1     2    2
     8     2     3    1
     9     3     4    2
    10     4     5    1
    11     5    10    1
    12    10    11    1
    13     5     6    2
    14     6     7    1
    15     7     8    1
    16     8     9    2
    17     9     1    1
    18     8     3    1
@<TRIPOS>MOLECULE
*****
 17 18 0 0 0
SMALL
GASTEIGER

@<TRIPOS>ATOM
      1 C          61.8924   89.5026   11.3415 C.2     1  UNL1        0.1898
      2 N          62.6139   90.5075   10.4932 N.2     1  UNL1       -0.2199
      3 C          63.6997   91.1225   11.3255 C.2     1  UNL1        0.1003
      4 C          64.7278   92.1707   11.0186 C.2     1  UNL1        0.0569
      5 C          65.7055   92.5941   12.0744 C.2     1  UNL1        0.1364
      6 C          65.6551   91.9693   13.4372 C.2     1  UNL1        0.0172
      7 C          64.6270   90.9211   13.7441 C.3     1  UNL1        0.0765
      8 C          63.6493   90.4977   12.6883 C.2     1  UNL1        0.0833
      9 N          62.5324   89.4966   12.6981 N.2     1  UNL1       -0.2238
     10 O          66.7337   93.6424   11.7675 O.2     1  UNL1       -0.4717
     11 C          66.3036   94.9970   11.2879 C.3     1  UNL1        0.2525
     12 S          60.7343   88.6530   10.9091 S.3     1  UNL1       -0.0757
     13 C          60.9560   87.2178   10.5337 C.3     1  UNL1        0.0652
     14 C          61.3277   86.8597    9.1253 C.3     1  UNL1        0.0121
     15 C          60.3129   86.2275    8.2194 C.3     1  UNL1        0.0009
     16 C          59.2321   88.4413    7.3942 C.3     1  UNL1        0.0000
     17 C          59.1003   87.0020    7.7955 C.3     1  UNL1        0.0000
@<TRIPOS>BOND
     1    16    17    1
     2    17    15    1
     3    15    14    1
     4    14    13    1
     5    13    12    1
     6    12     1    1
     7     1     2    2
     8     2     3    1
     9     3     4    2
    10     4     5    1
    11     5    10    1
    12    10    11    1
    13     5     6    2
    14     6     7    1
    15     7     8    1
    16     8     9    2
    17     9     1    1
    18     8     3    1
@<TRIPOS>MOLECULE
*****
 17 18 0 0 0
SMALL
GASTEIGER

@<TRIPOS>ATOM
      1 C          62.2916   88.9207   10.8196 C.2     1  UNL1        0.1898
      2 N          62.8578   90.3081   10.7523 N.2     1  UNL1       -0.2199
      3 C          63.6434   90.5496   12.0071 C.2     1  UNL1        0.1003
      4 C          64.4218   91.7369   12.4912 C.2     1  UNL1        0.0569
      5 C          65.1195   91.6860   13.8180 C.2     1  UNL1        0.1364
      6 C          65.0389   90.4478   14.6608 C.2     1  UNL1        0.0172
      7 C          64.2605   89.2605   14.1768 C.3     1  UNL1        0.0765
      8 C          63.5628   89.3113   12.8499 C.2     1  UNL1        0.0833
      9 N          62.7274   88.3047   12.1160 N.2     1  UNL1       -0.2238
     10 O          65.8979   92.8734   14.3021 O.2     1  UNL1       -0.4717
     11 C          66.6082   92.8171   15.6221 C.3     1  UNL1        0.2525
     12 S          61.4394   88.2646    9.7740 S.3     1  UNL1       -0.0757
     13 C          61.7647   86.8782    9.3029 C.3     1  UNL1        0.0652
     14 C          61.5136   85.7028   10.2004 C.3     1  UNL1        0.0121
     15 C          62.6677   84.9101   10.7387 C.3     1  UNL1        0.0009
     16 C          64.2297   82.8749   10.3287 C.3     1  UNL1        0.0000
     17 C          63.5074   84.0832    9.8107 C.3     1  UNL1        0.0000
@<TRIPOS>BOND
     1    16    17    1
     2    17    15    1
     3    15    14    1
     4    14    13    1
     5    13    12    1
     6    12     1    1
     7     1     2    2
     8     2     3    1
     9     3     4    2
    10     4     5    1
    11     5    10    1
    12    10    11    1
    13     5     6    2
    14     6     7    1
    15     7     8    1
    16     8     9    2
    17     9     1    1
    18     8     3    1
@<TRIPOS>MOLECULE
*****
 17 18 0 0 0
SMALL
GASTEIGER

@<TRIPOS>ATOM
      1 C          62.2853   88.4021   10.7462 C.2     1  UNL1        0.1898
      2 N          62.7250   89.8335   10.6582 N.2     1  UNL1       -0.2199
      3 C          63.4720   90.1671   11.9155 C.2     1  UNL1        0.1003
      4 C          64.1350   91.4282   12.3844 C.2     1  UNL1        0.0569
      5 C          64.8200   91.4641   13.7184 C.2     1  UNL1        0.1364
      6 C          64.8421   90.2388   14.5833 C.2     1  UNL1        0.0172
      7 C          64.1791   88.9777   14.1144 C.3     1  UNL1        0.0765
      8 C          63.4940   88.9418   12.7805 C.2     1  UNL1        0.0833
      9 N          62.7606   87.8510   12.0578 N.2     1  UNL1       -0.2238
     10 O          65.4831   92.7252   14.1874 O.2     1  UNL1       -0.4717
     11 C          66.3844   93.4876   13.2619 C.3     1  UNL1        0.2525
     12 S          61.5070   87.6533    9.7053 S.3     1  UNL1       -0.0757
     13 C          60.1225   88.0992    9.3389 C.3     1  UNL1        0.0652
     14 C          59.9301   89.2369    8.3804 C.3     1  UNL1        0.0121
     15 C          59.3171   88.9880    7.0342 C.3     1  UNL1        0.0009
     16 C          58.3494   90.8775    5.5364 C.3     1  UNL1        0.0000
     17 C          59.4928   89.9913    5.9330 C.3     1  UNL1        0.0000
@<TRIPOS>BOND
     1    16    17    1
     2    17    15    1
     3    15    14    1
     4    14    13    1
     5    13    12    1
     6    12     1    1
     7     1     2    2
     8     2     3    1
     9     3     4    2
    10     4     5    1
    11     5    10    1
    12    10    11    1
    13     5     6    2
    14     6     7    1
    15     7     8    1
    16     8     9    2
    17     9     1    1
    18     8     3    1
@<TRIPOS>MOLECULE
*****
 17 18 0 0 0
SMALL
GASTEIGER

@<TRIPOS>ATOM
      1 C          63.8949   85.4014   14.3546 C.2     1  UNL1        0.1898
      2 N          64.4487   86.5969   15.0714 N.2     1  UNL1       -0.2199
      3 C          64.1486   87.8127   14.2457 C.2     1  UNL1        0.1003
      4 C          64.4530   89.2668   14.4527 C.2     1  UNL1        0.0569
      5 C          64.0180   90.2767   13.4325 C.2     1  UNL1        0.1364
      6 C          63.2785   89.8325   12.2054 C.2     1  UNL1        0.0172
      7 C          62.9741   88.3784   11.9984 C.3     1  UNL1        0.0765
      8 C          63.4091   87.3685   13.0185 C.2     1  UNL1        0.0833
      9 N          63.2523   85.8783   13.0859 N.2     1  UNL1       -0.2238
     10 O          64.3224   91.7309   13.6395 O.2     1  UNL1       -0.4717
     11 C          65.4390   92.3794   12.8763 C.3     1  UNL1        0.2525
     12 S          63.9703   83.9787   14.8241 S.3     1  UNL1       -0.0757
     13 C          63.0583   82.9447   14.2334 C.3     1  UNL1        0.0652
     14 C          63.6198   81.8565   13.3670 C.3     1  UNL1        0.0121
     15 C          63.4686   81.9315   11.8764 C.3     1  UNL1        0.0009
     16 C          63.8162   83.5574    9.8801 C.3     1  UNL1        0.0000
     17 C          64.3600   82.8347   11.0767 C.3     1  UNL1        0.0000
@<TRIPOS>BOND
     1    16    17    1
     2    17    15    1
     3    15    14    1
     4    14    13    1
     5    13    12    1
     6    12     1    1
     7     1     2    2
     8     2     3    1
     9     3     4    2
    10     4     5    1
    11     5    10    1
    12    10    11    1
    13     5     6    2
    14     6     7    1
    15     7     8    1
    16     8     9    2
    17     9     1    1
    18     8     3    1
@<TRIPOS>MOLECULE
*****
 17 18 0 0 0
SMALL
GASTEIGER

@<TRIPOS>ATOM
      1 C          60.9873   87.0482    9.9747 C.2     1  UNL1        0.1898
      2 N          61.1668   86.3305   11.2796 N.2     1  UNL1       -0.2199
      3 C          62.1654   85.2309   11.0703 C.2     1  UNL1        0.1003
      4 C          62.7327   84.2000   12.0005 C.2     1  UNL1        0.0569
      5 C          63.7376   83.2070   11.4963 C.2     1  UNL1        0.1364
      6 C          64.1753   83.2451   10.0621 C.2     1  UNL1        0.0172
      7 C          63.6079   84.2761    9.1320 C.3     1  UNL1        0.0765
      8 C          62.6030   85.2690    9.6361 C.2     1  UNL1        0.0833
      9 N          61.8749   86.3921    8.9590 N.2     1  UNL1       -0.2238
     10 O          64.3050   82.1760   12.4265 O.2     1  UNL1       -0.4717
     11 C          63.3897   81.2299   13.1456 C.3     1  UNL1        0.2525
     12 S          60.0795   88.2167    9.7287 S.3     1  UNL1       -0.0757
     13 C          60.2608   89.0624    8.5032 C.3     1  UNL1        0.0652
     14 C          59.2223   89.0470    7.4210 C.3     1  UNL1        0.0121
     15 C          59.5625   89.5463    6.0480 C.3     1  UNL1        0.0009
     16 C          57.5718   91.0057    5.2373 C.3     1  UNL1        0.0000
     17 C          59.0264   90.8651    5.5753 C.3     1  UNL1        0.0000
@<TRIPOS>BOND
     1    16    17    1
     2    17    15    1
     3    15    14    1
     4    14    13    1
     5    13    12    1
     6    12     1    1
     7     1     2    2
     8     2     3    1
     9     3     4    2
    10     4     5    1
    11     5    10    1
    12    10    11    1
    13     5     6    2
    14     6     7    1
    15     7     8    1
    16     8     9    2
    17     9     1    1
    18     8     3    1
