@<TRIPOS>MOLECULE
*****
 21 23 0 0 0
SMALL
GASTEIGER

@<TRIPOS>ATOM
      1 C          62.6329   85.1240   11.2703 C.3     1  UNL1        0.0629
      2 C          63.2806   84.0006   10.5165 C.3     1  UNL1        0.0247
      3 C          64.3394   83.1674   11.1757 C.3     1  UNL1        0.0690
      4 N          64.7505   83.4576   12.5888 N.3     1  UNL1       -0.2982
      5 C          64.1027   84.5810   13.3427 C.3     1  UNL1        0.0588
      6 C          63.0439   85.4142   12.6834 C.3     1  UNL1        0.0237
      7 H          65.7512   83.6541   12.5699 H       1  UNL1        0.1232
      8 O          59.3770   87.1592    7.6456 O.2     1  UNL1       -0.2645
      9 C          60.0775   86.8927    8.9449 C.ar    1  UNL1        0.2884
     10 C          61.1666   85.8860    9.1692 C.ar    1  UNL1        0.0986
     11 C          61.5740   85.9573   10.6111 C.ar    1  UNL1        0.1547
     12 O          60.7367   87.0081   11.2779 O.2     1  UNL1       -0.3802
     13 N          59.8118   87.5862   10.2482 N.ar    1  UNL1       -0.1839
     14 H          59.1471   88.2962   10.4010 H       1  UNL1        0.2107
     15 C          64.5138   84.8712   14.7557 C.3     1  UNL1        0.0420
     16 C          64.0669   86.1389   15.4215 C.ar    1  UNL1       -0.0208
     17 C          64.4040   87.4664   14.8099 C.ar    1  UNL1       -0.0042
     18 C          63.9571   88.7341   15.4757 C.ar    1  UNL1       -0.0003
     19 C          63.1731   88.6742   16.7531 C.ar    1  UNL1       -0.0000
     20 C          62.8360   87.3468   17.3647 C.ar    1  UNL1       -0.0003
     21 C          63.2829   86.0790   16.6990 C.ar    1  UNL1       -0.0042
@<TRIPOS>BOND
     1     8     9    2
     2     9    10   ar
     3    10    11   ar
     4     1    11    1
     5     1     2    1
     6     2     3    1
     7     3     4    1
     8     4     5    1
     9     5    15    1
    10    15    16    1
    11    16    17   ar
    12    17    18   ar
    13    18    19   ar
    14    19    20   ar
    15    20    21   ar
    16     5     6    1
    17    11    12   ar
    18    12    13   ar
    19    13     9   ar
    20     6     1    1
    21    21    16   ar
    22     4     7    1
    23    13    14    1
@<TRIPOS>MOLECULE
*****
 21 23 0 0 0
SMALL
GASTEIGER

@<TRIPOS>ATOM
      1 C          64.8113   92.0029   11.4723 C.3     1  UNL1        0.0629
      2 C          63.6497   91.5208   10.6549 C.3     1  UNL1        0.0247
      3 C          62.5666   90.7064   11.2980 C.3     1  UNL1        0.0690
      4 N          62.6451   90.3742   12.7587 N.3     1  UNL1       -0.2982
      5 C          63.8066   90.8563   13.5761 C.3     1  UNL1        0.0588
      6 C          64.8897   91.6706   12.9330 C.3     1  UNL1        0.0237
      7 H          62.6369   89.3567   12.8300 H       1  UNL1        0.1232
      8 O          67.4872   96.0536    9.3957 O.2     1  UNL1       -0.2645
      9 C          67.1244   94.6792    9.8746 C.ar    1  UNL1        0.2884
     10 C          65.8244   94.2808   10.5080 C.ar    1  UNL1        0.0986
     11 C          65.8944   92.8173   10.8292 C.ar    1  UNL1        0.1547
     12 O          67.2378   92.3111   10.3943 O.2     1  UNL1       -0.3802
     13 N          67.9980   93.4618    9.8044 N.ar    1  UNL1       -0.1839
     14 H          68.9101   93.4246    9.4358 H       1  UNL1        0.2107
     15 C          63.8851   90.5241   15.0368 C.3     1  UNL1        0.0420
     16 C          63.7788   89.0976   15.4882 C.ar    1  UNL1       -0.0208
     17 C          64.3876   88.0025   14.6634 C.ar    1  UNL1       -0.0042
     18 C          64.2813   86.5760   15.1149 C.ar    1  UNL1       -0.0003
     19 C          63.5662   86.2446   16.3911 C.ar    1  UNL1       -0.0000
     20 C          62.9574   87.3396   17.2159 C.ar    1  UNL1       -0.0003
     21 C          63.0637   88.7661   16.7644 C.ar    1  UNL1       -0.0042
@<TRIPOS>BOND
     1     8     9    2
     2     9    10   ar
     3    10    11   ar
     4     1    11    1
     5     1     2    1
     6     2     3    1
     7     3     4    1
     8     4     5    1
     9     5    15    1
    10    15    16    1
    11    16    17   ar
    12    17    18   ar
    13    18    19   ar
    14    19    20   ar
    15    20    21   ar
    16     5     6    1
    17    11    12   ar
    18    12    13   ar
    19    13     9   ar
    20     6     1    1
    21    21    16   ar
    22     4     7    1
    23    13    14    1
@<TRIPOS>MOLECULE
*****
 21 23 0 0 0
SMALL
GASTEIGER

@<TRIPOS>ATOM
      1 C          63.2496   84.5475   13.1696 C.3     1  UNL1        0.0629
      2 C          63.9508   85.3756   14.2052 C.3     1  UNL1        0.0247
      3 C          64.0283   86.8653   14.0477 C.3     1  UNL1        0.0690
      4 N          63.4047   87.5268   12.8547 N.3     1  UNL1       -0.2982
      5 C          62.7035   86.6987   11.8191 C.3     1  UNL1        0.0588
      6 C          62.6260   85.2091   11.9765 C.3     1  UNL1        0.0237
      7 H          64.1503   88.0302   12.3739 H       1  UNL1        0.1232
      8 O          62.5433   79.4183   12.1335 O.2     1  UNL1       -0.2645
      9 C          62.8474   80.7001   12.8507 C.ar    1  UNL1        0.2884
     10 C          62.7943   82.0766   12.2570 C.ar    1  UNL1        0.0986
     11 C          63.1720   83.0578   13.3270 C.ar    1  UNL1        0.1547
     12 O          63.4585   82.2877   14.5819 O.2     1  UNL1       -0.3802
     13 N          63.2578   80.8306   14.2876 N.ar    1  UNL1       -0.1839
     14 H          63.3750   80.0899   14.9255 H       1  UNL1        0.2107
     15 C          62.0799   87.3603   10.6260 C.3     1  UNL1        0.0420
     16 C          61.8375   86.5725    9.3728 C.ar    1  UNL1       -0.0208
     17 C          60.4808   86.5795    8.7330 C.ar    1  UNL1       -0.0042
     18 C          60.2385   85.7916    7.4799 C.ar    1  UNL1       -0.0003
     19 C          61.3528   84.9967    6.8664 C.ar    1  UNL1       -0.0000
     20 C          62.7095   84.9897    7.5061 C.ar    1  UNL1       -0.0003
     21 C          62.9519   85.7776    8.7594 C.ar    1  UNL1       -0.0042
@<TRIPOS>BOND
     1     8     9    2
     2     9    10   ar
     3    10    11   ar
     4     1    11    1
     5     1     2    1
     6     2     3    1
     7     3     4    1
     8     4     5    1
     9     5    15    1
    10    15    16    1
    11    16    17   ar
    12    17    18   ar
    13    18    19   ar
    14    19    20   ar
    15    20    21   ar
    16     5     6    1
    17    11    12   ar
    18    12    13   ar
    19    13     9   ar
    20     6     1    1
    21    21    16   ar
    22     4     7    1
    23    13    14    1
@<TRIPOS>MOLECULE
*****
 21 23 0 0 0
SMALL
GASTEIGER

@<TRIPOS>ATOM
      1 C          62.1289   89.8290   11.2112 C.3     1  UNL1        0.0629
      2 C          60.8091   90.1228   11.8607 C.3     1  UNL1        0.0247
      3 C          59.7288   89.0823   11.8681 C.3     1  UNL1        0.0690
      4 N          59.9683   87.7479   11.2260 N.3     1  UNL1       -0.2982
      5 C          61.2880   87.4542   10.5765 C.3     1  UNL1        0.0588
      6 C          62.3684   88.4947   10.5691 C.3     1  UNL1        0.0237
      7 H          59.2543   87.6352   10.5063 H       1  UNL1        0.1232
      8 O          66.1069   92.9488   12.7357 O.2     1  UNL1       -0.2645
      9 C          65.0378   92.3036   11.9046 C.ar    1  UNL1        0.2884
     10 C          64.1128   91.2107   12.3517 C.ar    1  UNL1        0.0986
     11 C          63.2093   90.8696   11.2038 C.ar    1  UNL1        0.1547
     12 O          63.5760   91.7517   10.0474 O.2     1  UNL1       -0.3802
     13 N          64.7060   92.6380   10.4804 N.ar    1  UNL1       -0.1839
     14 H          65.1517   93.3195    9.9271 H       1  UNL1        0.2107
     15 C          61.5275   86.1199    9.9344 C.3     1  UNL1        0.0420
     16 C          62.4636   85.1373   10.5733 C.ar    1  UNL1       -0.0208
     17 C          63.3342   84.2655    9.7176 C.ar    1  UNL1       -0.0042
     18 C          64.2703   83.2829   10.3565 C.ar    1  UNL1       -0.0003
     19 C          64.3359   83.1721   11.8510 C.ar    1  UNL1       -0.0000
     20 C          63.4653   84.0438   12.7066 C.ar    1  UNL1       -0.0003
     21 C          62.5291   85.0265   12.0677 C.ar    1  UNL1       -0.0042
@<TRIPOS>BOND
     1     8     9    2
     2     9    10   ar
     3    10    11   ar
     4     1    11    1
     5     1     2    1
     6     2     3    1
     7     3     4    1
     8     4     5    1
     9     5    15    1
    10    15    16    1
    11    16    17   ar
    12    17    18   ar
    13    18    19   ar
    14    19    20   ar
    15    20    21   ar
    16     5     6    1
    17    11    12   ar
    18    12    13   ar
    19    13     9   ar
    20     6     1    1
    21    21    16   ar
    22     4     7    1
    23    13    14    1
@<TRIPOS>MOLECULE
*****
 21 23 0 0 0
SMALL
GASTEIGER

@<TRIPOS>ATOM
      1 C          63.4654   90.3579   12.4293 C.3     1  UNL1        0.0629
      2 C          63.2328   91.2807   11.2700 C.3     1  UNL1        0.0247
      3 C          62.6282   90.7545   10.0021 C.3     1  UNL1        0.0690
      4 N          62.2563   89.3054    9.8936 N.3     1  UNL1       -0.2982
      5 C          62.4890   88.3825   11.0529 C.3     1  UNL1        0.0588
      6 C          63.0935   88.9088   12.3208 C.3     1  UNL1        0.0237
      7 H          62.7799   88.9253    9.1050 H       1  UNL1        0.1232
      8 O          66.9055   92.3591   15.8995 O.2     1  UNL1       -0.2645
      9 C          65.6513   91.8039   15.2923 C.ar    1  UNL1        0.2884
     10 C          65.4785   91.3716   13.8664 C.ar    1  UNL1        0.0986
     11 C          64.0700   90.8841   13.6973 C.ar    1  UNL1        0.1547
     12 O          63.3723   91.0151   15.0186 O.2     1  UNL1       -0.3802
     13 N          64.3495   91.5836   16.0044 N.ar    1  UNL1       -0.1839
     14 H          64.1684   91.7780   16.9524 H       1  UNL1        0.2107
     15 C          62.1171   86.9334   10.9444 C.3     1  UNL1        0.0420
     16 C          61.8598   86.3239    9.5982 C.ar    1  UNL1       -0.0208
     17 C          62.9630   85.6095    8.8751 C.ar    1  UNL1       -0.0042
     18 C          62.7058   85.0000    7.5289 C.ar    1  UNL1       -0.0003
     19 C          61.3454   85.1049    6.9057 C.ar    1  UNL1       -0.0000
     20 C          60.2423   85.8192    7.6287 C.ar    1  UNL1       -0.0003
     21 C          60.4995   86.4288    8.9750 C.ar    1  UNL1       -0.0042
@<TRIPOS>BOND
     1     8     9    2
     2     9    10   ar
     3    10    11   ar
     4     1    11    1
     5     1     2    1
     6     2     3    1
     7     3     4    1
     8     4     5    1
     9     5    15    1
    10    15    16    1
    11    16    17   ar
    12    17    18   ar
    13    18    19   ar
    14    19    20   ar
    15    20    21   ar
    16     5     6    1
    17    11    12   ar
    18    12    13   ar
    19    13     9   ar
    20     6     1    1
    21    21    16   ar
    22     4     7    1
    23    13    14    1
@<TRIPOS>MOLECULE
*****
 21 23 0 0 0
SMALL
GASTEIGER

@<TRIPOS>ATOM
      1 C          62.7420   84.2362   11.4474 C.3     1  UNL1        0.0629
      2 C          63.3201   83.7996   10.1340 C.3     1  UNL1        0.0247
      3 C          63.2923   84.7283    8.9565 C.3     1  UNL1        0.0690
      4 N          62.6863   86.0937    9.0924 N.3     1  UNL1       -0.2982
      5 C          62.1081   86.5304   10.4057 C.3     1  UNL1        0.0588
      6 C          62.1360   85.6016   11.5833 C.3     1  UNL1        0.0237
      7 H          61.9343   86.1517    8.4057 H       1  UNL1        0.1232
      8 O          62.9935   79.8536   14.3818 O.2     1  UNL1       -0.2645
      9 C          62.8854   81.2930   13.9738 C.ar    1  UNL1        0.2884
     10 C          62.9040   81.8146   12.5675 C.ar    1  UNL1        0.0986
     11 C          62.7697   83.3075   12.6250 C.ar    1  UNL1        0.1547
     12 O          62.6682   83.7085   14.0668 O.2     1  UNL1       -0.3802
     13 N          62.7397   82.4635   14.9004 N.ar    1  UNL1       -0.1839
     14 H          62.6982   82.4220   15.8832 H       1  UNL1        0.2107
     15 C          61.5022   87.8958   10.5416 C.3     1  UNL1        0.0420
     16 C          62.3523   89.0542   10.9719 C.ar    1  UNL1       -0.0208
     17 C          62.5496   90.2224   10.0518 C.ar    1  UNL1       -0.0042
     18 C          63.3998   91.3808   10.4821 C.ar    1  UNL1       -0.0003
     19 C          64.0527   91.3712   11.8325 C.ar    1  UNL1       -0.0000
     20 C          63.8554   90.2031   12.7526 C.ar    1  UNL1       -0.0003
     21 C          63.0052   89.0446   12.3223 C.ar    1  UNL1       -0.0042
@<TRIPOS>BOND
     1     8     9    2
     2     9    10   ar
     3    10    11   ar
     4     1    11    1
     5     1     2    1
     6     2     3    1
     7     3     4    1
     8     4     5    1
     9     5    15    1
    10    15    16    1
    11    16    17   ar
    12    17    18   ar
    13    18    19   ar
    14    19    20   ar
    15    20    21   ar
    16     5     6    1
    17    11    12   ar
    18    12    13   ar
    19    13     9   ar
    20     6     1    1
    21    21    16   ar
    22     4     7    1
    23    13    14    1
@<TRIPOS>MOLECULE
*****
 21 23 0 0 0
SMALL
GASTEIGER

@<TRIPOS>ATOM
      1 C          62.0514   86.8064   10.3183 C.3     1  UNL1        0.0629
      2 C          61.9031   86.6381    8.8352 C.3     1  UNL1        0.0247
      3 C          62.4631   85.4220    8.1588 C.3     1  UNL1        0.0690
      4 N          63.1713   84.3743    8.9654 N.3     1  UNL1       -0.2982
      5 C          63.3195   84.5426   10.4485 C.3     1  UNL1        0.0588
      6 C          62.7596   85.7586   11.1250 C.3     1  UNL1        0.0237
      7 H          64.1133   84.2947    8.5825 H       1  UNL1        0.1232
      8 O          59.0140   90.9767   11.4425 O.2     1  UNL1       -0.2645
      9 C          60.0952   89.9394   11.5116 C.ar    1  UNL1        0.2884
     10 C          60.2976   88.8110   10.5442 C.ar    1  UNL1        0.0986
     11 C          61.4914   88.0225   10.9949 C.ar    1  UNL1        0.1547
     12 O          62.0268   88.6635   12.2408 O.2     1  UNL1       -0.3802
     13 N          61.1640   89.8482   12.5602 N.ar    1  UNL1       -0.1839
     14 H          61.2790   90.4587   13.3239 H       1  UNL1        0.2107
     15 C          64.0277   83.4949   11.2552 C.3     1  UNL1        0.0420
     16 C          63.2666   82.6774   12.2563 C.ar    1  UNL1       -0.0208
     17 C          62.9750   81.2324   11.9785 C.ar    1  UNL1       -0.0042
     18 C          62.2139   80.4149   12.9797 C.ar    1  UNL1       -0.0003
     19 C          61.7442   81.0424   14.2586 C.ar    1  UNL1       -0.0000
     20 C          62.0357   82.4873   14.5365 C.ar    1  UNL1       -0.0003
     21 C          62.7969   83.3048   13.5353 C.ar    1  UNL1       -0.0042
@<TRIPOS>BOND
     1     8     9    2
     2     9    10   ar
     3    10    11   ar
     4     1    11    1
     5     1     2    1
     6     2     3    1
     7     3     4    1
     8     4     5    1
     9     5    15    1
    10    15    16    1
    11    16    17   ar
    12    17    18   ar
    13    18    19   ar
    14    19    20   ar
    15    20    21   ar
    16     5     6    1
    17    11    12   ar
    18    12    13   ar
    19    13     9   ar
    20     6     1    1
    21    21    16   ar
    22     4     7    1
    23    13    14    1
@<TRIPOS>MOLECULE
*****
 21 23 0 0 0
SMALL
GASTEIGER

@<TRIPOS>ATOM
      1 C          63.2887   90.2650   12.0702 C.3     1  UNL1        0.0629
      2 C          63.5335   89.4297   13.2918 C.3     1  UNL1        0.0247
      3 C          64.5940   89.8303   14.2740 C.3     1  UNL1        0.0690
      4 N          65.4096   91.0662   14.0348 N.3     1  UNL1       -0.2982
      5 C          65.1648   91.9015   12.8132 C.3     1  UNL1        0.0588
      6 C          64.1044   91.5009   11.8309 C.3     1  UNL1        0.0237
      7 H          66.3858   90.7726   13.9999 H       1  UNL1        0.1232
      8 O          60.5099   87.5089    8.5257 O.2     1  UNL1       -0.2645
      9 C          60.9510   88.5975    9.4586 C.ar    1  UNL1        0.2884
     10 C          62.1786   88.5766   10.3202 C.ar    1  UNL1        0.0986
     11 C          62.2282   89.8644   11.0878 C.ar    1  UNL1        0.1547
     12 O          61.0313   90.6813   10.7005 O.2     1  UNL1       -0.3802
     13 N          60.2419   89.8983    9.6937 N.ar    1  UNL1       -0.1839
     14 H          59.4052   90.1874    9.2627 H       1  UNL1        0.2107
     15 C          65.9805   93.1374   12.5739 C.3     1  UNL1        0.0420
     16 C          66.7279   93.3047   11.2842 C.ar    1  UNL1       -0.0208
     17 C          66.6091   94.5833   10.5089 C.ar    1  UNL1       -0.0042
     18 C          67.3566   94.7505    9.2192 C.ar    1  UNL1       -0.0003
     19 C          68.2229   93.6393    8.7049 C.ar    1  UNL1       -0.0000
     20 C          68.3417   92.3607    9.4802 C.ar    1  UNL1       -0.0003
     21 C          67.5942   92.1934   10.7699 C.ar    1  UNL1       -0.0042
@<TRIPOS>BOND
     1     8     9    2
     2     9    10   ar
     3    10    11   ar
     4     1    11    1
     5     1     2    1
     6     2     3    1
     7     3     4    1
     8     4     5    1
     9     5    15    1
    10    15    16    1
    11    16    17   ar
    12    17    18   ar
    13    18    19   ar
    14    19    20   ar
    15    20    21   ar
    16     5     6    1
    17    11    12   ar
    18    12    13   ar
    19    13     9   ar
    20     6     1    1
    21    21    16   ar
    22     4     7    1
    23    13    14    1
@<TRIPOS>MOLECULE
*****
 21 23 0 0 0
SMALL
GASTEIGER

@<TRIPOS>ATOM
      1 C          63.1012   84.1262   12.2966 C.3     1  UNL1        0.0629
      2 C          63.2345   82.6371   12.4181 C.3     1  UNL1        0.0247
      3 C          63.5834   82.0207   13.7403 C.3     1  UNL1        0.0690
      4 N          63.7990   82.8935   14.9411 N.3     1  UNL1       -0.2982
      5 C          63.6657   84.3826   14.8196 C.3     1  UNL1        0.0588
      6 C          63.3168   84.9989   13.4973 C.3     1  UNL1        0.0237
      7 H          64.7455   82.7087   15.2732 H       1  UNL1        0.1232
      8 O          60.7617   87.0692    8.5889 O.2     1  UNL1       -0.2645
      9 C          61.6769   86.0953    9.2701 C.ar    1  UNL1        0.2884
     10 C          61.6760   85.7589   10.7319 C.ar    1  UNL1        0.0986
     11 C          62.7523   84.7426   10.9743 C.ar    1  UNL1        0.1547
     12 O          63.4183   84.4509    9.6623 O.2     1  UNL1       -0.3802
     13 N          62.7537   85.2869    8.6091 N.ar    1  UNL1       -0.1839
     14 H          62.9839   85.3023    7.6520 H       1  UNL1        0.2107
     15 C          63.8813   85.2553   16.0203 C.3     1  UNL1        0.0420
     16 C          63.8017   86.7473   15.8871 C.ar    1  UNL1       -0.0208
     17 C          63.0775   87.5552   16.9230 C.ar    1  UNL1       -0.0042
     18 C          62.9979   89.0471   16.7898 C.ar    1  UNL1       -0.0003
     19 C          63.6424   89.7312   15.6208 C.ar    1  UNL1       -0.0000
     20 C          64.3665   88.9234   14.5850 C.ar    1  UNL1       -0.0003
     21 C          64.4462   87.4314   14.7181 C.ar    1  UNL1       -0.0042
@<TRIPOS>BOND
     1     8     9    2
     2     9    10   ar
     3    10    11   ar
     4     1    11    1
     5     1     2    1
     6     2     3    1
     7     3     4    1
     8     4     5    1
     9     5    15    1
    10    15    16    1
    11    16    17   ar
    12    17    18   ar
    13    18    19   ar
    14    19    20   ar
    15    20    21   ar
    16     5     6    1
    17    11    12   ar
    18    12    13   ar
    19    13     9   ar
    20     6     1    1
    21    21    16   ar
    22     4     7    1
    23    13    14    1
