@<TRIPOS>MOLECULE
*****
 36 40 0 0 0
SMALL
GASTEIGER

@<TRIPOS>ATOM
      1 C          59.8236   91.1165    5.1914 C.ar    1  UNL1       -0.0025
      2 C          59.1140   92.1254    4.3380 C.ar    1  UNL1       -0.0014
      3 C          59.8258   92.7631    3.1818 C.ar    1  UNL1        0.0142
      4 C          61.2472   92.3919    2.8791 C.ar    1  UNL1        0.0478
      5 C          61.9568   91.3830    3.7325 C.ar    1  UNL1        0.0142
      6 C          61.2451   90.7453    4.8887 C.ar    1  UNL1       -0.0014
      7 N          61.9590   93.0296    1.7229 N.pl3   1  UNL1       -0.3075
      8 C          63.4062   93.4039    1.8473 C.3     1  UNL1        0.0911
      9 C          64.1179   94.0417    0.6912 C.3     1  UNL1        0.0258
     10 C          63.3825   94.3050   -0.5894 C.3     1  UNL1        0.0257
     11 C          61.9353   93.9307   -0.7138 C.3     1  UNL1        0.0258
     12 C          61.2236   93.2930    0.4424 C.3     1  UNL1        0.0911
     13 C          64.0943   94.9427   -1.7455 C.ar    1  UNL1       -0.0222
     14 C          64.9645   96.1436   -1.5206 C.ar    1  UNL1       -0.0020
     15 C          65.6762   96.7813   -2.6767 C.ar    1  UNL1        0.0293
     16 C          65.5178   96.2181   -4.0580 C.ar    1  UNL1        0.1401
     17 F          66.2295   96.8558   -5.2141 F       1  UNL1       -0.2042
     18 C          64.6476   95.0173   -4.2829 C.ar    1  UNL1        0.0293
     19 C          63.9358   94.3796   -3.1268 C.ar    1  UNL1       -0.0020
     20 C          59.1118   90.4788    6.3476 C.3     1  UNL1        0.1166
     21 C          59.4102   88.4861    7.9877 C.2     1  UNL1        0.2635
     22 O          58.1382   87.8759    7.4777 O.2     1  UNL1       -0.2685
     23 N          59.8969   89.7874    7.4226 N.am    1  UNL1       -0.2957
     24 H          60.7317   90.1879    7.7573 H       1  UNL1        0.1501
     25 C          60.1516   88.1111   10.5284 C.ar    1  UNL1        0.0811
     26 N          61.0912   87.1775   11.2323 N.ar    1  UNL1       -0.2306
     27 C          61.7156   86.2841   10.2018 C.ar    1  UNL1        0.1475
     28 C          62.7168   85.1726   10.3111 C.ar    1  UNL1        0.0383
     29 C          63.1643   84.4425    9.0796 C.ar    1  UNL1        0.0160
     30 C          62.6105   84.8239    7.7387 C.ar    1  UNL1        0.0753
     31 CL         63.0581   84.0938    6.5072 Cl      1  UNL1       -0.0807
     32 C          61.6093   85.9355    7.6294 C.ar    1  UNL1        0.0929
     33 N          61.1619   86.6656    8.8609 N.ar    1  UNL1       -0.2845
     34 C          60.1953   87.7947    9.0628 C.ar    1  UNL1        0.1326
     35 C          59.7784   90.6011   11.1694 C.3     1  UNL1        0.0067
     36 C          59.3151   89.1745   11.1762 C.3     1  UNL1        0.0475
@<TRIPOS>BOND
     1    35    36    1
     2    36    25    1
     3    25    26   ar
     4    26    27   ar
     5    27    28   ar
     6    28    29   ar
     7    29    30   ar
     8    30    31    1
     9    30    32   ar
    10    32    33   ar
    11    33    34   ar
    12    34    21    1
    13    21    22    2
    14    21    23   am
    15    23    20    1
    16    20     1    1
    17     1     2   ar
    18     2     3   ar
    19     3     4   ar
    20     4     7    1
    21     7     8    1
    22     8     9    1
    23     9    10    1
    24    10    13    1
    25    13    14   ar
    26    14    15   ar
    27    15    16   ar
    28    16    17    1
    29    16    18   ar
    30    18    19   ar
    31    10    11    1
    32    11    12    1
    33     4     5   ar
    34     5     6   ar
    35    34    25   ar
    36     6     1   ar
    37    33    27   ar
    38    12     7    1
    39    19    13   ar
    40    23    24    1
@<TRIPOS>MOLECULE
*****
 36 40 0 0 0
SMALL
GASTEIGER

@<TRIPOS>ATOM
      1 C          59.8743   90.9615    5.3283 C.ar    1  UNL1       -0.0025
      2 C          61.2901   90.5971    4.9928 C.ar    1  UNL1       -0.0014
      3 C          61.9783   91.2520    3.8320 C.ar    1  UNL1        0.0142
      4 C          61.2506   92.2714    3.0066 C.ar    1  UNL1        0.0478
      5 C          59.8348   92.6359    3.3421 C.ar    1  UNL1        0.0142
      6 C          59.1466   91.9810    4.5029 C.ar    1  UNL1       -0.0014
      7 N          61.9387   92.9264    1.8458 N.pl3   1  UNL1       -0.3075
      8 C          63.4247   93.1290    1.8719 C.3     1  UNL1        0.0911
      9 C          64.1129   93.7839    0.7111 C.3     1  UNL1        0.0258
     10 C          63.3150   94.2362   -0.4759 C.3     1  UNL1        0.0257
     11 C          61.8290   94.0336   -0.5020 C.3     1  UNL1        0.0258
     12 C          61.1409   93.3786    0.6588 C.3     1  UNL1        0.0911
     13 C          64.0031   94.8911   -1.6367 C.ar    1  UNL1       -0.0222
     14 C          63.7022   94.4441   -3.0365 C.ar    1  UNL1       -0.0020
     15 C          64.3904   95.0990   -4.1973 C.ar    1  UNL1        0.0293
     16 C          65.3795   96.2010   -3.9584 C.ar    1  UNL1        0.1401
     17 F          66.0676   96.8560   -5.1192 F       1  UNL1       -0.2042
     18 C          65.6804   96.6481   -2.5585 C.ar    1  UNL1        0.0293
     19 C          64.9923   95.9932   -1.3977 C.ar    1  UNL1       -0.0020
     20 C          59.1862   90.3066    6.4891 C.3     1  UNL1        0.1166
     21 C          60.1105   89.3545    8.7227 C.2     1  UNL1        0.2635
     22 O          59.6580   90.5930    9.4379 O.2     1  UNL1       -0.2685
     23 N          59.8746   89.2113    7.2484 N.am    1  UNL1       -0.2957
     24 H          60.1715   88.3985    6.7790 H       1  UNL1        0.1501
     25 C          60.7177   86.7920    9.1810 C.ar    1  UNL1        0.0811
     26 N          61.5579   86.0649   10.1886 N.ar    1  UNL1       -0.2306
     27 C          62.1584   87.0827   11.1124 C.ar    1  UNL1        0.1475
     28 C          63.0718   86.9498   12.2947 C.ar    1  UNL1        0.0383
     29 C          63.5160   88.1732   13.0404 C.ar    1  UNL1        0.0160
     30 C          63.0469   89.5293   12.6038 C.ar    1  UNL1        0.0753
     31 CL         63.4912   90.7527   13.3495 Cl      1  UNL1       -0.0807
     32 C          62.1335   89.6622   11.4214 C.ar    1  UNL1        0.0929
     33 N          61.6893   88.4389   10.6757 N.ar    1  UNL1       -0.2845
     34 C          60.7989   88.2592    9.4820 C.ar    1  UNL1        0.1326
     35 C          60.6255   85.2869    7.0653 C.3     1  UNL1        0.0067
     36 C          59.9338   86.1624    8.0677 C.3     1  UNL1        0.0475
@<TRIPOS>BOND
     1    35    36    1
     2    36    25    1
     3    25    26   ar
     4    26    27   ar
     5    27    28   ar
     6    28    29   ar
     7    29    30   ar
     8    30    31    1
     9    30    32   ar
    10    32    33   ar
    11    33    34   ar
    12    34    21    1
    13    21    22    2
    14    21    23   am
    15    23    20    1
    16    20     1    1
    17     1     2   ar
    18     2     3   ar
    19     3     4   ar
    20     4     7    1
    21     7     8    1
    22     8     9    1
    23     9    10    1
    24    10    13    1
    25    13    14   ar
    26    14    15   ar
    27    15    16   ar
    28    16    17    1
    29    16    18   ar
    30    18    19   ar
    31    10    11    1
    32    11    12    1
    33     4     5   ar
    34     5     6   ar
    35    34    25   ar
    36     6     1   ar
    37    33    27   ar
    38    12     7    1
    39    19    13   ar
    40    23    24    1
@<TRIPOS>MOLECULE
*****
 36 40 0 0 0
SMALL
GASTEIGER

@<TRIPOS>ATOM
      1 C          58.7664   91.0866    5.1987 C.ar    1  UNL1       -0.0025
      2 C          60.2546   91.0223    5.3748 C.ar    1  UNL1       -0.0014
      3 C          60.8502   90.0928    6.3903 C.ar    1  UNL1        0.0142
      4 C          59.9577   89.2274    7.2296 C.ar    1  UNL1        0.0478
      5 C          58.4695   89.2917    7.0534 C.ar    1  UNL1        0.0142
      6 C          57.8738   90.2212    6.0380 C.ar    1  UNL1       -0.0014
      7 N          60.5533   88.2979    8.2450 N.pl3   1  UNL1       -0.3075
      8 C          60.4359   86.8136    8.0630 C.3     1  UNL1        0.0911
      9 C          61.0316   85.8841    9.0785 C.3     1  UNL1        0.0258
     10 C          61.7447   86.4388   10.2759 C.3     1  UNL1        0.0257
     11 C          61.8621   87.9231   10.4579 C.3     1  UNL1        0.0258
     12 C          61.2664   88.8526    9.4425 C.3     1  UNL1        0.0911
     13 C          62.3403   85.5092   11.2913 C.ar    1  UNL1       -0.0222
     14 C          62.9406   86.0596   12.5510 C.ar    1  UNL1       -0.0020
     15 C          63.5363   85.1300   13.5664 C.ar    1  UNL1        0.0293
     16 C          63.5317   83.6501   13.3222 C.ar    1  UNL1        0.1401
     17 F          64.1273   82.7205   14.3376 F       1  UNL1       -0.2042
     18 C          62.9313   83.0997   12.0626 C.ar    1  UNL1        0.0293
     19 C          62.3357   84.0292   11.0472 C.ar    1  UNL1       -0.0020
     20 C          58.1707   92.0161    4.1832 C.3     1  UNL1        0.1166
     21 C          59.6625   93.1758    2.4001 C.2     1  UNL1        0.2635
     22 O          60.0324   94.2335    3.3975 O.2     1  UNL1       -0.2685
     23 N          58.7317   92.0672    2.7930 N.am    1  UNL1       -0.2957
     24 H          58.4890   91.3731    2.1384 H       1  UNL1        0.1501
     25 C          61.6769   93.1708    0.6430 C.ar    1  UNL1        0.0811
     26 N          61.7812   93.2524   -0.8511 N.ar    1  UNL1       -0.2306
     27 C          60.3923   93.3589   -1.4076 C.ar    1  UNL1        0.1475
     28 C          59.8799   93.4682   -2.8131 C.ar    1  UNL1        0.0383
     29 C          58.4048   93.5617   -3.0684 C.ar    1  UNL1        0.0160
     30 C          57.4421   93.5460   -1.9182 C.ar    1  UNL1        0.0753
     31 CL         55.9669   93.6396   -2.1736 Cl      1  UNL1       -0.0807
     32 C          57.9545   93.4367   -0.5127 C.ar    1  UNL1        0.0929
     33 N          59.4296   93.3432   -0.2575 N.ar    1  UNL1       -0.2845
     34 C          60.2235   93.2270    1.0099 C.ar    1  UNL1        0.1326
     35 C          62.9639   91.8305    2.4588 C.3     1  UNL1        0.0067
     36 C          62.8244   93.0537    1.6019 C.3     1  UNL1        0.0475
@<TRIPOS>BOND
     1    35    36    1
     2    36    25    1
     3    25    26   ar
     4    26    27   ar
     5    27    28   ar
     6    28    29   ar
     7    29    30   ar
     8    30    31    1
     9    30    32   ar
    10    32    33   ar
    11    33    34   ar
    12    34    21    1
    13    21    22    2
    14    21    23   am
    15    23    20    1
    16    20     1    1
    17     1     2   ar
    18     2     3   ar
    19     3     4   ar
    20     4     7    1
    21     7     8    1
    22     8     9    1
    23     9    10    1
    24    10    13    1
    25    13    14   ar
    26    14    15   ar
    27    15    16   ar
    28    16    17    1
    29    16    18   ar
    30    18    19   ar
    31    10    11    1
    32    11    12    1
    33     4     5   ar
    34     5     6   ar
    35    34    25   ar
    36     6     1   ar
    37    33    27   ar
    38    12     7    1
    39    19    13   ar
    40    23    24    1
@<TRIPOS>MOLECULE
*****
 36 40 0 0 0
SMALL
GASTEIGER

@<TRIPOS>ATOM
      1 C          59.9111   87.5664    8.9378 C.ar    1  UNL1       -0.0025
      2 C          60.4299   88.9565    9.1573 C.ar    1  UNL1       -0.0014
      3 C          60.3999   89.9540    8.0374 C.ar    1  UNL1        0.0142
      4 C          59.8509   89.5612    6.6979 C.ar    1  UNL1        0.0478
      5 C          59.3321   88.1711    6.4783 C.ar    1  UNL1        0.0142
      6 C          59.3622   87.1737    7.5982 C.ar    1  UNL1       -0.0014
      7 N          59.8209   90.5587    5.5779 N.pl3   1  UNL1       -0.3075
      8 C          58.5235   91.1942    5.1743 C.3     1  UNL1        0.0911
      9 C          58.4935   92.1916    4.0544 C.3     1  UNL1        0.0258
     10 C          59.7607   92.5535    3.3381 C.3     1  UNL1        0.0257
     11 C          61.0581   91.9180    3.7417 C.3     1  UNL1        0.0258
     12 C          61.0881   90.9205    4.8616 C.3     1  UNL1        0.0911
     13 C          59.7307   93.5509    2.2182 C.ar    1  UNL1       -0.0222
     14 C          59.1441   93.1710    0.8910 C.ar    1  UNL1       -0.0020
     15 C          59.1141   94.1684   -0.2290 C.ar    1  UNL1        0.0293
     16 C          59.6705   95.5459   -0.0217 C.ar    1  UNL1        0.1401
     17 F          59.6405   96.5433   -1.1416 F       1  UNL1       -0.2042
     18 C          60.2570   95.9258    1.3056 C.ar    1  UNL1        0.0293
     19 C          60.2871   94.9284    2.4255 C.ar    1  UNL1       -0.0020
     20 C          59.9412   86.5690   10.0577 C.3     1  UNL1        0.1166
     21 C          62.1411   86.1675   11.3802 C.2     1  UNL1        0.2635
     22 O          62.6311   85.2612   10.2899 O.2     1  UNL1       -0.2685
     23 N          60.7962   86.8213   11.2640 N.am    1  UNL1       -0.2957
     24 H          60.4746   87.4161   11.9796 H       1  UNL1        0.1501
     25 C          63.4962   85.3807   13.5458 C.ar    1  UNL1        0.0811
     26 N          64.3103   86.0744   14.5975 N.ar    1  UNL1       -0.2306
     27 C          64.3133   87.5421   14.2883 C.ar    1  UNL1        0.1475
     28 C          64.9507   88.7118   14.9779 C.ar    1  UNL1        0.0383
     29 C          64.7759   90.0950   14.4247 C.ar    1  UNL1        0.0160
     30 C          63.9636   90.3085   13.1818 C.ar    1  UNL1        0.0753
     31 CL         63.7888   91.6918   12.6286 Cl      1  UNL1       -0.0807
     32 C          63.3262   89.1389   12.4922 C.ar    1  UNL1        0.0929
     33 N          63.5011   87.7557   13.0455 N.ar    1  UNL1       -0.2845
     34 C          62.9961   86.4199   12.5866 C.ar    1  UNL1        0.1326
     35 C          64.1377   83.0217   12.6663 C.3     1  UNL1        0.0067
     36 C          63.2292   83.9068   13.4671 C.3     1  UNL1        0.0475
@<TRIPOS>BOND
     1    35    36    1
     2    36    25    1
     3    25    26   ar
     4    26    27   ar
     5    27    28   ar
     6    28    29   ar
     7    29    30   ar
     8    30    31    1
     9    30    32   ar
    10    32    33   ar
    11    33    34   ar
    12    34    21    1
    13    21    22    2
    14    21    23   am
    15    23    20    1
    16    20     1    1
    17     1     2   ar
    18     2     3   ar
    19     3     4   ar
    20     4     7    1
    21     7     8    1
    22     8     9    1
    23     9    10    1
    24    10    13    1
    25    13    14   ar
    26    14    15   ar
    27    15    16   ar
    28    16    17    1
    29    16    18   ar
    30    18    19   ar
    31    10    11    1
    32    11    12    1
    33     4     5   ar
    34     5     6   ar
    35    34    25   ar
    36     6     1   ar
    37    33    27   ar
    38    12     7    1
    39    19    13   ar
    40    23    24    1
@<TRIPOS>MOLECULE
*****
 36 40 0 0 0
SMALL
GASTEIGER

@<TRIPOS>ATOM
      1 C          59.6750   87.8144    8.8503 C.ar    1  UNL1       -0.0025
      2 C          60.2788   89.1725    9.0525 C.ar    1  UNL1       -0.0014
      3 C          60.3276   90.1487    7.9146 C.ar    1  UNL1        0.0142
      4 C          59.7726   89.7667    6.5744 C.ar    1  UNL1        0.0478
      5 C          59.1689   88.4086    6.3722 C.ar    1  UNL1        0.0142
      6 C          59.1201   87.4324    7.5101 C.ar    1  UNL1       -0.0014
      7 N          59.8215   90.7428    5.4366 N.pl3   1  UNL1       -0.3075
      8 C          61.1244   91.0321    4.7520 C.3     1  UNL1        0.0911
      9 C          61.1732   92.0082    3.6141 C.3     1  UNL1        0.0258
     10 C          59.9191   92.6951    3.1608 C.3     1  UNL1        0.0257
     11 C          58.6162   92.4058    3.8454 C.3     1  UNL1        0.0258
     12 C          58.5673   91.4297    4.9833 C.3     1  UNL1        0.0911
     13 C          59.9679   93.6712    2.0229 C.ar    1  UNL1       -0.0222
     14 C          60.5861   95.0235    2.2208 C.ar    1  UNL1       -0.0020
     15 C          60.6349   95.9996    1.0829 C.ar    1  UNL1        0.0293
     16 C          60.0655   95.6235   -0.2529 C.ar    1  UNL1        0.1401
     17 F          60.1143   96.5996   -1.3908 F       1  UNL1       -0.2042
     18 C          59.4473   94.2712   -0.4507 C.ar    1  UNL1        0.0293
     19 C          59.3985   93.2951    0.6872 C.ar    1  UNL1       -0.0020
     20 C          59.6262   86.8383    9.9881 C.3     1  UNL1        0.1166
     21 C          61.9618   86.5920   11.0991 C.2     1  UNL1        0.2635
     22 O          62.4962   85.9774    9.8394 O.2     1  UNL1       -0.2685
     23 N          60.5269   87.0224   11.1734 N.am    1  UNL1       -0.2957
     24 H          60.1762   87.4258   12.0002 H       1  UNL1        0.1501
     25 C          63.3869   88.0841   12.7985 C.ar    1  UNL1        0.0811
     26 N          64.2454   87.8009   13.9955 N.ar    1  UNL1       -0.2306
     27 C          64.2515   86.3180   14.2212 C.ar    1  UNL1        0.1475
     28 C          64.9249   85.4625   15.2531 C.ar    1  UNL1        0.0383
     29 C          64.7436   83.9738   15.2274 C.ar    1  UNL1        0.0160
     30 C          63.8889   83.3405   14.1698 C.ar    1  UNL1        0.0753
     31 CL         63.7077   81.8516   14.1442 Cl      1  UNL1       -0.0807
     32 C          63.2155   84.1959   13.1380 C.ar    1  UNL1        0.0929
     33 N          63.3968   85.6846   13.1637 N.ar    1  UNL1       -0.2845
     34 C          62.8625   86.7761   12.2844 C.ar    1  UNL1        0.1326
     35 C          63.7814   90.6519   12.7785 C.3     1  UNL1        0.0067
     36 C          63.1028   89.4375   12.2176 C.3     1  UNL1        0.0475
@<TRIPOS>BOND
     1    35    36    1
     2    36    25    1
     3    25    26   ar
     4    26    27   ar
     5    27    28   ar
     6    28    29   ar
     7    29    30   ar
     8    30    31    1
     9    30    32   ar
    10    32    33   ar
    11    33    34   ar
    12    34    21    1
    13    21    22    2
    14    21    23   am
    15    23    20    1
    16    20     1    1
    17     1     2   ar
    18     2     3   ar
    19     3     4   ar
    20     4     7    1
    21     7     8    1
    22     8     9    1
    23     9    10    1
    24    10    13    1
    25    13    14   ar
    26    14    15   ar
    27    15    16   ar
    28    16    17    1
    29    16    18   ar
    30    18    19   ar
    31    10    11    1
    32    11    12    1
    33     4     5   ar
    34     5     6   ar
    35    34    25   ar
    36     6     1   ar
    37    33    27   ar
    38    12     7    1
    39    19    13   ar
    40    23    24    1
@<TRIPOS>MOLECULE
*****
 36 40 0 0 0
SMALL
GASTEIGER

@<TRIPOS>ATOM
      1 C          58.7877   91.2242    5.0707 C.ar    1  UNL1       -0.0025
      2 C          60.2762   91.0828    5.1896 C.ar    1  UNL1       -0.0014
      3 C          60.8611   90.0930    6.1529 C.ar    1  UNL1        0.0142
      4 C          59.9573   89.2444    6.9975 C.ar    1  UNL1        0.0478
      5 C          58.4688   89.3858    6.8787 C.ar    1  UNL1        0.0142
      6 C          57.8839   90.3757    5.9153 C.ar    1  UNL1       -0.0014
      7 N          60.5422   88.2546    7.9609 N.pl3   1  UNL1       -0.3075
      8 C          60.4938   86.7878    7.6508 C.3     1  UNL1        0.0911
      9 C          61.0787   85.7979    8.6142 C.3     1  UNL1        0.0258
     10 C          61.7119   86.2748    9.8876 C.3     1  UNL1        0.0257
     11 C          61.7603   87.7416   10.1976 C.3     1  UNL1        0.0258
     12 C          61.1755   88.7315    9.2343 C.3     1  UNL1        0.0911
     13 C          62.2968   85.2849   10.8509 C.ar    1  UNL1       -0.0222
     14 C          63.0880   84.1179   10.3393 C.ar    1  UNL1       -0.0020
     15 C          63.6729   83.1280   11.3026 C.ar    1  UNL1        0.0293
     16 C          63.4665   83.3052   12.7778 C.ar    1  UNL1        0.1401
     17 F          64.0514   82.3153   13.7411 F       1  UNL1       -0.2042
     18 C          62.6753   84.4722   13.2894 C.ar    1  UNL1        0.0293
     19 C          62.0904   85.4621   12.3261 C.ar    1  UNL1       -0.0020
     20 C          58.2028   92.2141    4.1074 C.3     1  UNL1        0.1166
     21 C          59.5576   93.2897    2.1690 C.2     1  UNL1        0.2635
     22 O          60.0345   94.3655    3.0993 O.2     1  UNL1       -0.2685
     23 N          58.6418   92.2141    2.6731 N.am    1  UNL1       -0.2957
     24 H          58.3288   91.5081    2.0625 H       1  UNL1        0.1501
     25 C          59.0993   93.1754   -0.4620 C.ar    1  UNL1        0.0811
     26 N          59.9582   93.2191   -1.6910 N.ar    1  UNL1       -0.2306
     27 C          61.3861   93.3604   -1.2540 C.ar    1  UNL1        0.1475
     28 C          62.6678   93.4549   -2.0275 C.ar    1  UNL1        0.0383
     29 C          63.9732   93.5931   -1.3017 C.ar    1  UNL1        0.0160
     30 C          63.9970   93.6367    0.1974 C.ar    1  UNL1        0.0753
     31 CL         65.3025   93.7749    0.9231 Cl      1  UNL1       -0.0807
     32 C          62.7153   93.5422    0.9709 C.ar    1  UNL1        0.0929
     33 N          61.4098   93.4040    0.2452 N.ar    1  UNL1       -0.2845
     34 C          59.9966   93.2897    0.7346 C.ar    1  UNL1        0.1326
     35 C          56.8853   92.4362   -1.6029 C.3     1  UNL1        0.0067
     36 C          57.6056   93.0411   -0.4345 C.3     1  UNL1        0.0475
@<TRIPOS>BOND
     1    35    36    1
     2    36    25    1
     3    25    26   ar
     4    26    27   ar
     5    27    28   ar
     6    28    29   ar
     7    29    30   ar
     8    30    31    1
     9    30    32   ar
    10    32    33   ar
    11    33    34   ar
    12    34    21    1
    13    21    22    2
    14    21    23   am
    15    23    20    1
    16    20     1    1
    17     1     2   ar
    18     2     3   ar
    19     3     4   ar
    20     4     7    1
    21     7     8    1
    22     8     9    1
    23     9    10    1
    24    10    13    1
    25    13    14   ar
    26    14    15   ar
    27    15    16   ar
    28    16    17    1
    29    16    18   ar
    30    18    19   ar
    31    10    11    1
    32    11    12    1
    33     4     5   ar
    34     5     6   ar
    35    34    25   ar
    36     6     1   ar
    37    33    27   ar
    38    12     7    1
    39    19    13   ar
    40    23    24    1
@<TRIPOS>MOLECULE
*****
 36 40 0 0 0
SMALL
GASTEIGER

@<TRIPOS>ATOM
      1 C          59.1126   90.1615    6.2606 C.ar    1  UNL1       -0.0025
      2 C          58.6431   88.7567    6.4972 C.ar    1  UNL1       -0.0014
      3 C          59.2830   87.9222    7.5669 C.ar    1  UNL1        0.0142
      4 C          60.3924   88.4925    8.3999 C.ar    1  UNL1        0.0478
      5 C          60.8619   89.8973    8.1632 C.ar    1  UNL1        0.0142
      6 C          60.2220   90.7318    7.0936 C.ar    1  UNL1       -0.0014
      7 N          61.0323   87.6580    9.4695 N.pl3   1  UNL1       -0.3075
      8 C          60.8996   86.1643    9.4352 C.3     1  UNL1        0.0911
      9 C          61.5395   85.3297   10.5049 C.3     1  UNL1        0.0258
     10 C          62.3121   85.9889   11.6088 C.3     1  UNL1        0.0257
     11 C          62.4448   87.4827   11.6430 C.3     1  UNL1        0.0258
     12 C          61.8049   88.3172   10.5734 C.3     1  UNL1        0.0911
     13 C          62.9519   85.1544   12.6784 C.ar    1  UNL1       -0.0222
     14 C          62.7545   83.6675   12.6883 C.ar    1  UNL1       -0.0020
     15 C          63.3944   82.8330   13.7579 C.ar    1  UNL1        0.0293
     16 C          64.2318   83.4854   14.8177 C.ar    1  UNL1        0.1401
     17 F          64.8717   82.6509   15.8874 F       1  UNL1       -0.2042
     18 C          64.4292   84.9723   14.8079 C.ar    1  UNL1        0.0293
     19 C          63.7893   85.8068   13.7382 C.ar    1  UNL1       -0.0020
     20 C          58.4727   90.9960    5.1909 C.3     1  UNL1        0.1166
     21 C          59.7196   92.5294    3.5046 C.2     1  UNL1        0.2635
     22 O          59.5832   93.6835    4.4532 O.2     1  UNL1       -0.2685
     23 N          59.1643   91.1858    3.8735 N.am    1  UNL1       -0.2957
     24 H          59.2538   90.4284    3.2509 H       1  UNL1        0.1501
     25 C          61.8866   92.6063    1.9416 C.ar    1  UNL1        0.0811
     26 N          62.1360   92.8726    0.4866 N.ar    1  UNL1       -0.2306
     27 C          60.8148   93.1501   -0.1670 C.ar    1  UNL1        0.1475
     28 C          60.4446   93.4768   -1.5834 C.ar    1  UNL1        0.0383
     29 C          59.0085   93.7088   -1.9488 C.ar    1  UNL1        0.0160
     30 C          57.9424   93.6140   -0.8978 C.ar    1  UNL1        0.0753
     31 CL         56.5062   93.8460   -1.2633 Cl      1  UNL1       -0.0807
     32 C          58.3125   93.2873    0.5186 C.ar    1  UNL1        0.0929
     33 N          59.7487   93.0553    0.8840 N.ar    1  UNL1       -0.2845
     34 C          60.4112   92.7193    2.1871 C.ar    1  UNL1        0.1326
     35 C          63.2958   90.8553    3.2446 C.3     1  UNL1        0.0067
     36 C          62.9295   92.2837    2.9703 C.3     1  UNL1        0.0475
@<TRIPOS>BOND
     1    35    36    1
     2    36    25    1
     3    25    26   ar
     4    26    27   ar
     5    27    28   ar
     6    28    29   ar
     7    29    30   ar
     8    30    31    1
     9    30    32   ar
    10    32    33   ar
    11    33    34   ar
    12    34    21    1
    13    21    22    2
    14    21    23   am
    15    23    20    1
    16    20     1    1
    17     1     2   ar
    18     2     3   ar
    19     3     4   ar
    20     4     7    1
    21     7     8    1
    22     8     9    1
    23     9    10    1
    24    10    13    1
    25    13    14   ar
    26    14    15   ar
    27    15    16   ar
    28    16    17    1
    29    16    18   ar
    30    18    19   ar
    31    10    11    1
    32    11    12    1
    33     4     5   ar
    34     5     6   ar
    35    34    25   ar
    36     6     1   ar
    37    33    27   ar
    38    12     7    1
    39    19    13   ar
    40    23    24    1
@<TRIPOS>MOLECULE
*****
 36 40 0 0 0
SMALL
GASTEIGER

@<TRIPOS>ATOM
      1 C          59.7371   88.2861    9.1141 C.ar    1  UNL1       -0.0025
      2 C          59.0517   87.8249    7.8621 C.ar    1  UNL1       -0.0014
      3 C          59.0668   88.6899    6.6367 C.ar    1  UNL1        0.0142
      4 C          59.7673   90.0160    6.6633 C.ar    1  UNL1        0.0478
      5 C          60.4526   90.4772    7.9153 C.ar    1  UNL1        0.0142
      6 C          60.4375   89.6122    9.1407 C.ar    1  UNL1       -0.0014
      7 N          59.7823   90.8810    5.4379 N.pl3   1  UNL1       -0.3075
      8 C          58.4979   91.4314    4.8926 C.3     1  UNL1        0.0911
      9 C          58.5130   92.2964    3.6672 C.3     1  UNL1        0.0258
     10 C          59.8124   92.6109    2.9871 C.3     1  UNL1        0.0257
     11 C          61.0968   92.0605    3.5324 C.3     1  UNL1        0.0258
     12 C          61.0818   91.1955    4.7578 C.3     1  UNL1        0.0911
     13 C          59.8275   93.4759    1.7617 C.ar    1  UNL1       -0.0222
     14 C          59.2521   92.9634    0.4748 C.ar    1  UNL1       -0.0020
     15 C          59.2672   93.8283   -0.7506 C.ar    1  UNL1        0.0293
     16 C          59.8577   95.2058   -0.6891 C.ar    1  UNL1        0.1401
     17 F          59.8727   96.0708   -1.9145 F       1  UNL1       -0.2042
     18 C          60.4331   95.7183    0.5978 C.ar    1  UNL1        0.0293
     19 C          60.4180   94.8534    1.8232 C.ar    1  UNL1       -0.0020
     20 C          59.7220   87.4211   10.3395 C.3     1  UNL1        0.1166
     21 C          61.9922   86.2134   10.7108 C.2     1  UNL1        0.2635
     22 O          62.6444   87.5311   11.0085 O.2     1  UNL1       -0.2685
     23 N          60.5310   86.1585   10.3764 N.am    1  UNL1       -0.2957
     24 H          60.1030   85.2937   10.1810 H       1  UNL1        0.1501
     25 C          63.4819   84.3054    9.5771 C.ar    1  UNL1        0.0811
     26 N          64.1729   83.0677   10.0676 N.ar    1  UNL1       -0.2306
     27 C          63.9192   82.9481   11.5411 C.ar    1  UNL1        0.1475
     28 C          64.3507   81.9298   12.5544 C.ar    1  UNL1        0.0383
     29 C          63.9343   82.0754   13.9881 C.ar    1  UNL1        0.0160
     30 C          63.0865   83.2393   14.4084 C.ar    1  UNL1        0.0753
     31 CL         62.6702   83.3848   15.8422 Cl      1  UNL1       -0.0807
     32 C          62.6551   84.2575   13.3951 C.ar    1  UNL1        0.0929
     33 N          63.0714   84.1120   11.9614 N.ar    1  UNL1       -0.2845
     34 C          62.8012   84.9508   10.7476 C.ar    1  UNL1        0.1326
     35 C          62.1864   84.8640    7.3955 C.3     1  UNL1        0.0067
     36 C          63.4732   84.8093    8.1643 C.3     1  UNL1        0.0475
@<TRIPOS>BOND
     1    35    36    1
     2    36    25    1
     3    25    26   ar
     4    26    27   ar
     5    27    28   ar
     6    28    29   ar
     7    29    30   ar
     8    30    31    1
     9    30    32   ar
    10    32    33   ar
    11    33    34   ar
    12    34    21    1
    13    21    22    2
    14    21    23   am
    15    23    20    1
    16    20     1    1
    17     1     2   ar
    18     2     3   ar
    19     3     4   ar
    20     4     7    1
    21     7     8    1
    22     8     9    1
    23     9    10    1
    24    10    13    1
    25    13    14   ar
    26    14    15   ar
    27    15    16   ar
    28    16    17    1
    29    16    18   ar
    30    18    19   ar
    31    10    11    1
    32    11    12    1
    33     4     5   ar
    34     5     6   ar
    35    34    25   ar
    36     6     1   ar
    37    33    27   ar
    38    12     7    1
    39    19    13   ar
    40    23    24    1
@<TRIPOS>MOLECULE
*****
 36 40 0 0 0
SMALL
GASTEIGER

@<TRIPOS>ATOM
      1 C          64.0029   89.7899   13.7289 C.ar    1  UNL1       -0.0025
      2 C          63.2373   89.4033   12.4984 C.ar    1  UNL1       -0.0014
      3 C          63.0580   87.9553   12.1505 C.ar    1  UNL1        0.0142
      4 C          63.6443   86.8937   13.0333 C.ar    1  UNL1        0.0478
      5 C          64.4099   87.2802   14.2638 C.ar    1  UNL1        0.0142
      6 C          64.5892   88.7283   14.6117 C.ar    1  UNL1       -0.0014
      7 N          63.4650   85.4457   12.6854 N.pl3   1  UNL1       -0.3075
      8 C          63.8866   84.3832   13.6567 C.3     1  UNL1        0.0911
      9 C          63.7072   82.9352   13.3089 C.3     1  UNL1        0.0258
     10 C          63.1064   82.5496   11.9897 C.3     1  UNL1        0.0257
     11 C          62.6848   83.6120   11.0183 C.3     1  UNL1        0.0258
     12 C          62.8641   85.0600   11.3662 C.3     1  UNL1        0.0911
     13 C          62.9271   81.1015   11.6418 C.ar    1  UNL1       -0.0222
     14 C          63.0010   80.6593   10.2104 C.ar    1  UNL1       -0.0020
     15 C          62.8217   79.2112    9.8626 C.ar    1  UNL1        0.0293
     16 C          62.5684   78.2054   10.9461 C.ar    1  UNL1        0.1401
     17 F          62.3891   76.7574   10.5983 F       1  UNL1       -0.2042
     18 C          62.4944   78.6477   12.3775 C.ar    1  UNL1        0.0293
     19 C          62.6738   80.0957   12.7254 C.ar    1  UNL1       -0.0020
     20 C          64.1822   91.2379   14.0768 C.3     1  UNL1        0.1166
     21 C          65.2843   92.1265   11.8983 C.2     1  UNL1        0.2635
     22 O          64.2585   91.3974   11.0820 O.2     1  UNL1       -0.2685
     23 N          65.2461   92.0467   13.3956 N.am    1  UNL1       -0.2957
     24 H          65.9194   92.5252   13.9314 H       1  UNL1        0.1501
     25 C          67.8226   92.6616   11.2534 C.ar    1  UNL1        0.0811
     26 N          68.5100   93.7170   10.4388 N.ar    1  UNL1       -0.2306
     27 C          67.4606   94.6430    9.8992 C.ar    1  UNL1        0.1475
     28 C          67.5490   95.8636    9.0319 C.ar    1  UNL1        0.0383
     29 C          66.3012   96.6011    8.6457 C.ar    1  UNL1        0.0160
     30 C          64.9651   96.1180    9.1268 C.ar    1  UNL1        0.0753
     31 CL         63.7174   96.8556    8.7405 Cl      1  UNL1       -0.0807
     32 C          64.8767   94.8974    9.9940 C.ar    1  UNL1        0.0929
     33 N          66.1245   94.1598   10.3802 N.ar    1  UNL1       -0.2845
     34 C          66.3482   92.9353   11.2172 C.ar    1  UNL1        0.1326
     35 C          68.7429   91.6291   13.4527 C.3     1  UNL1        0.0067
     36 C          68.4919   91.5310   11.9771 C.3     1  UNL1        0.0475
@<TRIPOS>BOND
     1    35    36    1
     2    36    25    1
     3    25    26   ar
     4    26    27   ar
     5    27    28   ar
     6    28    29   ar
     7    29    30   ar
     8    30    31    1
     9    30    32   ar
    10    32    33   ar
    11    33    34   ar
    12    34    21    1
    13    21    22    2
    14    21    23   am
    15    23    20    1
    16    20     1    1
    17     1     2   ar
    18     2     3   ar
    19     3     4   ar
    20     4     7    1
    21     7     8    1
    22     8     9    1
    23     9    10    1
    24    10    13    1
    25    13    14   ar
    26    14    15   ar
    27    15    16   ar
    28    16    17    1
    29    16    18   ar
    30    18    19   ar
    31    10    11    1
    32    11    12    1
    33     4     5   ar
    34     5     6   ar
    35    34    25   ar
    36     6     1   ar
    37    33    27   ar
    38    12     7    1
    39    19    13   ar
    40    23    24    1
