@<TRIPOS>MOLECULE
*****
 43 48 0 0 0
SMALL
GASTEIGER

@<TRIPOS>ATOM
      1 C          59.2021   88.7544    7.2725 C.2     1  UNL1        0.2252
      2 O          58.2601   87.5947    7.1394 O.2     1  UNL1       -0.2749
      3 N          60.1312   88.8348    8.4473 N.am    1  UNL1       -0.2794
      4 C          60.1183   87.7556    9.4890 C.3     1  UNL1        0.0953
      5 C          61.0475   87.8361   10.6638 C.3     1  UNL1        0.0442
      6 C          61.9896   88.9958   10.7969 C.3     1  UNL1        0.0933
      7 C          62.0024   90.0749    9.7552 C.3     1  UNL1        0.0442
      8 C          61.0733   89.9945    8.5804 C.3     1  UNL1        0.0953
      9 N          62.9188   89.0763   11.9717 N.ar    1  UNL1       -0.2814
     10 C          63.6151   90.3110   12.4622 C.ar    1  UNL1        0.3354
     11 O          63.5045   91.6821   11.8639 O.2     1  UNL1       -0.2459
     12 N          64.4414   89.9339   13.6559 N.ar    1  UNL1       -0.2588
     13 C          64.2558   88.4662   13.9032 C.ar    1  UNL1        0.0863
     14 C          64.8221   87.5438   14.9417 C.ar    1  UNL1        0.0487
     15 C          64.4473   86.0914   14.9394 C.ar    1  UNL1        0.1417
     16 F          65.0136   85.1690   15.9779 F       1  UNL1       -0.2041
     17 C          63.5062   85.5614   13.8985 C.ar    1  UNL1        0.0312
     18 C          62.9400   86.4837   12.8600 C.ar    1  UNL1        0.0211
     19 C          63.3147   87.9361   12.8623 C.ar    1  UNL1        0.0801
     20 C          65.3022   90.8617   14.4610 C.ar    1  UNL1        0.0706
     21 C          64.7511   91.5167   15.6929 C.ar    1  UNL1        0.0201
     22 C          65.6120   92.4445   16.4980 C.ar    1  UNL1        0.0335
     23 C          67.0238   92.7174   16.0713 C.ar    1  UNL1        0.1675
     24 F          67.8847   93.6452   16.8764 F       1  UNL1       -0.2018
     25 C          67.5749   92.0625   14.8394 C.ar    1  UNL1        0.1688
     26 F          68.9868   92.3354   14.4127 F       1  UNL1       -0.2017
     27 C          66.7141   91.1347   14.0343 C.ar    1  UNL1        0.0496
     28 N          59.2407   91.9919    4.1474 N.3     1  UNL1       -0.2689
     29 C          60.5152   91.2944    4.5204 C.3     1  UNL1        0.0729
     30 C          60.5023   90.2152    5.5621 C.3     1  UNL1        0.0264
     31 C          59.2149   89.8336    6.2308 C.3     1  UNL1        0.0795
     32 C          57.9405   90.5311    5.8577 C.3     1  UNL1        0.0264
     33 C          57.9533   91.6103    4.8160 C.3     1  UNL1        0.0729
     34 C          59.2535   93.0711    3.1056 C.3     1  UNL1        0.0993
     35 N          64.0725   93.2188    1.1676 N.pl3   1  UNL1       -0.3426
     36 C          62.5960   93.0466    0.9663 C.ar    1  UNL1        0.1251
     37 C          61.6629   93.1450    2.1366 C.ar    1  UNL1        0.0310
     38 C          60.1865   92.9728    1.9353 C.ar    1  UNL1       -0.0018
     39 C          59.6432   92.7023    0.5636 C.ar    1  UNL1        0.0179
     40 C          60.5762   92.6040   -0.6068 C.ar    1  UNL1        0.1000
     41 N          62.0527   92.7761   -0.4054 N.ar    1  UNL1       -0.2296
     42 H          64.4291   93.3964    2.0679 H       1  UNL1        0.1437
     43 H          64.6848   93.1543    0.3994 H       1  UNL1        0.1437
@<TRIPOS>BOND
     1    35    36    1
     2    36    37   ar
     3    37    38   ar
     4    38    34    1
     5    34    28    1
     6    28    29    1
     7    29    30    1
     8    30    31    1
     9    31     1    1
    10     1     2    2
    11     1     3   am
    12     3     4    1
    13     4     5    1
    14     5     6    1
    15     6     9    1
    16     9    10   ar
    17    10    11    2
    18    10    12   ar
    19    12    20    1
    20    20    21   ar
    21    21    22   ar
    22    22    23   ar
    23    23    24    1
    24    23    25   ar
    25    25    26    1
    26    25    27   ar
    27    12    13   ar
    28    13    14   ar
    29    14    15   ar
    30    15    16    1
    31    15    17   ar
    32    17    18   ar
    33    18    19   ar
    34     6     7    1
    35     7     8    1
    36    31    32    1
    37    32    33    1
    38    38    39   ar
    39    39    40   ar
    40    40    41   ar
    41    41    36   ar
    42    33    28    1
    43     8     3    1
    44    19     9   ar
    45    27    20   ar
    46    19    13   ar
    47    35    42    1
    48    35    43    1
@<TRIPOS>MOLECULE
*****
 43 48 0 0 0
SMALL
GASTEIGER

@<TRIPOS>ATOM
      1 C          58.7234   90.5352    5.9329 C.2     1  UNL1        0.2252
      2 O          57.2749   90.8781    6.1172 O.2     1  UNL1       -0.2749
      3 N          59.5061   91.1611    4.8167 N.am    1  UNL1       -0.2794
      4 C          58.8401   92.1298    3.8850 C.3     1  UNL1        0.0953
      5 C          59.6227   92.7556    2.7688 C.3     1  UNL1        0.0442
      6 C          61.0714   92.4128    2.5844 C.3     1  UNL1        0.0933
      7 C          61.7373   91.4442    3.5161 C.3     1  UNL1        0.0442
      8 C          60.9546   90.8183    4.6323 C.3     1  UNL1        0.0953
      9 N          61.8540   93.0387    1.4682 N.ar    1  UNL1       -0.2814
     10 C          61.6294   92.8174    0.0018 C.ar    1  UNL1        0.3354
     11 O          60.5827   91.9314   -0.6061 O.2     1  UNL1       -0.2459
     12 N          62.6352   93.6377   -0.7502 N.ar    1  UNL1       -0.2588
     13 C          63.4815   94.3659    0.2516 C.ar    1  UNL1        0.0863
     14 C          64.6294   95.3183    0.0924 C.ar    1  UNL1        0.0487
     15 C          65.2944   95.9004    1.3043 C.ar    1  UNL1        0.1417
     16 F          66.4423   96.8528    1.1452 F       1  UNL1       -0.2041
     17 C          64.8116   95.5302    2.6754 C.ar    1  UNL1        0.0312
     18 C          63.6637   94.5778    2.8346 C.ar    1  UNL1        0.0211
     19 C          62.9987   93.9957    1.6227 C.ar    1  UNL1        0.0801
     20 C          62.7710   93.7160   -2.2420 C.ar    1  UNL1        0.0706
     21 C          61.8858   94.6371   -3.0283 C.ar    1  UNL1        0.0201
     22 C          62.0216   94.7154   -4.5201 C.ar    1  UNL1        0.0335
     23 C          63.0424   93.8727   -5.2256 C.ar    1  UNL1        0.1675
     24 F          63.1782   93.9511   -6.7174 F       1  UNL1       -0.2018
     25 C          63.9275   92.9517   -4.4393 C.ar    1  UNL1        0.1688
     26 F          64.9484   92.1091   -5.1447 F       1  UNL1       -0.2017
     27 C          63.7918   92.8734   -2.9475 C.ar    1  UNL1        0.0496
     28 N          60.7213   87.6292    8.7281 N.3     1  UNL1       -0.2689
     29 C          60.7779   89.1013    9.0106 C.3     1  UNL1        0.0729
     30 C          60.1120   90.0700    8.0789 C.3     1  UNL1        0.0264
     31 C          59.3894   89.5665    6.8646 C.3     1  UNL1        0.0795
     32 C          59.3328   88.0945    6.5820 C.3     1  UNL1        0.0264
     33 C          59.9988   87.1258    7.5138 C.3     1  UNL1        0.0729
     34 C          61.3873   86.6605    9.6598 C.3     1  UNL1        0.0993
     35 N          63.9267   85.7436   14.0995 N.pl3   1  UNL1       -0.3426
     36 C          63.4177   86.7079   13.0693 C.ar    1  UNL1        0.1251
     37 C          62.6570   86.2021   11.8796 C.ar    1  UNL1        0.0310
     38 C          62.1480   87.1664   10.8495 C.ar    1  UNL1       -0.0018
     39 C          62.3999   88.6364   11.0090 C.ar    1  UNL1        0.0179
     40 C          63.1606   89.1422   12.1988 C.ar    1  UNL1        0.1000
     41 N          63.6695   88.1779   13.2289 N.ar    1  UNL1       -0.2296
     42 H          63.7614   84.7788   13.9948 H       1  UNL1        0.1437
     43 H          64.4260   86.0756   14.8803 H       1  UNL1        0.1437
@<TRIPOS>BOND
     1    35    36    1
     2    36    37   ar
     3    37    38   ar
     4    38    34    1
     5    34    28    1
     6    28    29    1
     7    29    30    1
     8    30    31    1
     9    31     1    1
    10     1     2    2
    11     1     3   am
    12     3     4    1
    13     4     5    1
    14     5     6    1
    15     6     9    1
    16     9    10   ar
    17    10    11    2
    18    10    12   ar
    19    12    20    1
    20    20    21   ar
    21    21    22   ar
    22    22    23   ar
    23    23    24    1
    24    23    25   ar
    25    25    26    1
    26    25    27   ar
    27    12    13   ar
    28    13    14   ar
    29    14    15   ar
    30    15    16    1
    31    15    17   ar
    32    17    18   ar
    33    18    19   ar
    34     6     7    1
    35     7     8    1
    36    31    32    1
    37    32    33    1
    38    38    39   ar
    39    39    40   ar
    40    40    41   ar
    41    41    36   ar
    42    33    28    1
    43     8     3    1
    44    19     9   ar
    45    27    20   ar
    46    19    13   ar
    47    35    42    1
    48    35    43    1
@<TRIPOS>MOLECULE
*****
 43 48 0 0 0
SMALL
GASTEIGER

@<TRIPOS>ATOM
      1 C          58.5692   90.6051    5.9215 C.2     1  UNL1        0.2252
      2 O          57.0809   90.7895    5.9491 O.2     1  UNL1       -0.2749
      3 N          59.3784   91.2027    4.8088 N.am    1  UNL1       -0.2794
      4 C          58.6993   91.9845    3.7237 C.3     1  UNL1        0.0953
      5 C          59.5084   92.5820    2.6110 C.3     1  UNL1        0.0442
      6 C          60.9969   92.3977    2.5834 C.3     1  UNL1        0.0933
      7 C          61.6760   91.6159    3.6684 C.3     1  UNL1        0.0442
      8 C          60.8668   91.0184    4.7812 C.3     1  UNL1        0.0953
      9 N          61.8061   92.9953    1.4706 N.ar    1  UNL1       -0.2814
     10 C          61.6295   92.7212    0.0065 C.ar    1  UNL1        0.3354
     11 O          60.6127   91.8014   -0.6020 O.2     1  UNL1       -0.2459
     12 N          62.6482   93.5283   -0.7423 N.ar    1  UNL1       -0.2588
     13 C          63.4544   94.3012    0.2591 C.ar    1  UNL1        0.0863
     14 C          64.5952   95.2624    0.1022 C.ar    1  UNL1        0.0487
     15 C          65.2155   95.8942    1.3130 C.ar    1  UNL1        0.1417
     16 F          66.3563   96.8555    1.1561 F       1  UNL1       -0.2041
     17 C          64.6950   95.5647    2.6806 C.ar    1  UNL1        0.0312
     18 C          63.5542   94.6035    2.8375 C.ar    1  UNL1        0.0211
     19 C          62.9340   93.9718    1.6267 C.ar    1  UNL1        0.0801
     20 C          62.8291   93.5575   -2.2311 C.ar    1  UNL1        0.0706
     21 C          61.8945   94.3627   -3.0845 C.ar    1  UNL1        0.0201
     22 C          62.0753   94.3918   -4.5733 C.ar    1  UNL1        0.0335
     23 C          63.1907   93.6158   -5.2087 C.ar    1  UNL1        0.1675
     24 F          63.3715   93.6449   -6.6974 F       1  UNL1       -0.2018
     25 C          64.1252   92.8106   -4.3553 C.ar    1  UNL1        0.1688
     26 F          65.2406   92.0346   -4.9906 F       1  UNL1       -0.2017
     27 C          63.9444   92.7815   -2.8665 C.ar    1  UNL1        0.0496
     28 N          60.6067   88.2596    9.1768 N.3     1  UNL1       -0.2689
     29 C          59.7134   87.5604    8.1953 C.3     1  UNL1        0.0729
     30 C          59.0342   88.3422    7.1102 C.3     1  UNL1        0.0264
     31 C          59.2484   89.8233    7.0066 C.3     1  UNL1        0.0795
     32 C          60.1416   90.5225    7.9880 C.3     1  UNL1        0.0264
     33 C          60.8208   89.7406    9.0731 C.3     1  UNL1        0.0729
     34 C          61.2859   87.4778   10.2619 C.3     1  UNL1        0.0993
     35 N          63.6186   83.0776   11.7441 N.pl3   1  UNL1       -0.3426
     36 C          63.2300   84.0412   10.6622 C.ar    1  UNL1        0.1251
     37 C          62.4522   85.2777   11.0030 C.ar    1  UNL1        0.0310
     38 C          62.0636   86.2413    9.9211 C.ar    1  UNL1       -0.0018
     39 C          62.4528   85.9684    8.4984 C.ar    1  UNL1        0.0179
     40 C          63.2306   84.7319    8.1576 C.ar    1  UNL1        0.1000
     41 N          63.6192   83.7683    9.2395 N.ar    1  UNL1       -0.2296
     42 H          63.3632   83.2567   12.6778 H       1  UNL1        0.1437
     43 H          64.1291   82.2660   11.5203 H       1  UNL1        0.1437
@<TRIPOS>BOND
     1    35    36    1
     2    36    37   ar
     3    37    38   ar
     4    38    34    1
     5    34    28    1
     6    28    29    1
     7    29    30    1
     8    30    31    1
     9    31     1    1
    10     1     2    2
    11     1     3   am
    12     3     4    1
    13     4     5    1
    14     5     6    1
    15     6     9    1
    16     9    10   ar
    17    10    11    2
    18    10    12   ar
    19    12    20    1
    20    20    21   ar
    21    21    22   ar
    22    22    23   ar
    23    23    24    1
    24    23    25   ar
    25    25    26    1
    26    25    27   ar
    27    12    13   ar
    28    13    14   ar
    29    14    15   ar
    30    15    16    1
    31    15    17   ar
    32    17    18   ar
    33    18    19   ar
    34     6     7    1
    35     7     8    1
    36    31    32    1
    37    32    33    1
    38    38    39   ar
    39    39    40   ar
    40    40    41   ar
    41    41    36   ar
    42    33    28    1
    43     8     3    1
    44    19     9   ar
    45    27    20   ar
    46    19    13   ar
    47    35    42    1
    48    35    43    1
@<TRIPOS>MOLECULE
*****
 43 48 0 0 0
SMALL
GASTEIGER

@<TRIPOS>ATOM
      1 C          58.6053   89.6413    6.7926 C.2     1  UNL1        0.2252
      2 O          57.1263   89.4384    6.9385 O.2     1  UNL1       -0.2749
      3 N          59.1406   90.4706    5.6631 N.am    1  UNL1       -0.2794
      4 C          58.1970   91.0968    4.6796 C.3     1  UNL1        0.0953
      5 C          58.7323   91.9261    3.5501 C.3     1  UNL1        0.0442
      6 C          60.2114   92.1291    3.4041 C.3     1  UNL1        0.0933
      7 C          61.1550   91.5028    4.3876 C.3     1  UNL1        0.0442
      8 C          60.6196   90.6736    5.5171 C.3     1  UNL1        0.0953
      9 N          60.7467   92.9584    2.2746 N.ar    1  UNL1       -0.2814
     10 C          62.1628   93.4281    2.1198 C.ar    1  UNL1        0.3354
     11 O          63.2923   93.1511    3.0672 O.2     1  UNL1       -0.2459
     12 N          62.2512   94.2235    0.8511 N.ar    1  UNL1       -0.2588
     13 C          60.8897   94.2454    0.2219 C.ar    1  UNL1        0.0863
     14 C          60.3765   94.8763   -1.0385 C.ar    1  UNL1        0.0487
     15 C          58.9335   94.7253   -1.4191 C.ar    1  UNL1        0.1417
     16 F          58.4203   95.3562   -2.6795 F       1  UNL1       -0.2041
     17 C          58.0037   93.9433   -0.5393 C.ar    1  UNL1        0.0312
     18 C          58.5169   93.3125    0.7211 C.ar    1  UNL1        0.0211
     19 C          59.9599   93.4635    1.1017 C.ar    1  UNL1        0.0801
     20 C          63.4845   94.8816    0.3071 C.ar    1  UNL1        0.0706
     21 C          64.4363   95.5753    1.2361 C.ar    1  UNL1        0.0201
     22 C          65.6696   96.2334    0.6922 C.ar    1  UNL1        0.0335
     23 C          65.9512   96.1978   -0.7807 C.ar    1  UNL1        0.1675
     24 F          67.1845   96.8558   -1.3247 F       1  UNL1       -0.2018
     25 C          64.9994   95.5041   -1.7097 C.ar    1  UNL1        0.1688
     26 F          65.2809   95.4685   -3.1826 F       1  UNL1       -0.2017
     27 C          63.7661   94.8460   -1.1657 C.ar    1  UNL1        0.0496
     28 N          61.4363   87.7624    9.7430 N.3     1  UNL1       -0.2689
     29 C          61.1872   89.2412    9.7798 C.3     1  UNL1        0.0729
     30 C          60.2435   89.8675    8.7963 C.3     1  UNL1        0.0264
     31 C          59.5490   89.0150    7.7760 C.3     1  UNL1        0.0795
     32 C          59.7981   87.5363    7.7392 C.3     1  UNL1        0.0264
     33 C          60.7418   86.9100    8.7227 C.3     1  UNL1        0.0729
     34 C          62.3800   87.1362   10.7265 C.3     1  UNL1        0.0993
     35 N          62.4914   82.4211   12.9072 N.pl3   1  UNL1       -0.3426
     36 C          62.7471   83.3140   11.7293 C.ar    1  UNL1        0.1251
     37 C          62.4357   84.7787   11.8168 C.ar    1  UNL1        0.0310
     38 C          62.6915   85.6715   10.6389 C.ar    1  UNL1       -0.0018
     39 C          63.2586   85.0996    9.3735 C.ar    1  UNL1        0.0179
     40 C          63.5700   83.6349    9.2860 C.ar    1  UNL1        0.1000
     41 N          63.3143   82.7421   10.4639 N.ar    1  UNL1       -0.2296
     42 H          62.1192   82.7964   13.7378 H       1  UNL1        0.1437
     43 H          62.6958   81.4598   12.8498 H       1  UNL1        0.1437
@<TRIPOS>BOND
     1    35    36    1
     2    36    37   ar
     3    37    38   ar
     4    38    34    1
     5    34    28    1
     6    28    29    1
     7    29    30    1
     8    30    31    1
     9    31     1    1
    10     1     2    2
    11     1     3   am
    12     3     4    1
    13     4     5    1
    14     5     6    1
    15     6     9    1
    16     9    10   ar
    17    10    11    2
    18    10    12   ar
    19    12    20    1
    20    20    21   ar
    21    21    22   ar
    22    22    23   ar
    23    23    24    1
    24    23    25   ar
    25    25    26    1
    26    25    27   ar
    27    12    13   ar
    28    13    14   ar
    29    14    15   ar
    30    15    16    1
    31    15    17   ar
    32    17    18   ar
    33    18    19   ar
    34     6     7    1
    35     7     8    1
    36    31    32    1
    37    32    33    1
    38    38    39   ar
    39    39    40   ar
    40    40    41   ar
    41    41    36   ar
    42    33    28    1
    43     8     3    1
    44    19     9   ar
    45    27    20   ar
    46    19    13   ar
    47    35    42    1
    48    35    43    1
