@<TRIPOS>MOLECULE
*****
 34 37 0 0 0
SMALL
GASTEIGER

@<TRIPOS>ATOM
      1 C          66.6925   92.7356   16.0093 C.3     1  UNL1        0.0521
      2 C          66.1406   92.6488   14.6171 C.ar    1  UNL1        0.0595
      3 C          66.5976   93.6180   13.5675 C.ar    1  UNL1        0.0162
      4 C          66.0458   93.5312   12.1754 C.ar    1  UNL1        0.0201
      5 C          65.0371   92.4752   11.8329 C.ar    1  UNL1        0.0221
      6 C          64.4853   92.3884   10.4408 C.ar    1  UNL1        0.0017
      7 C          63.4767   91.3323   10.0983 C.ar    1  UNL1        0.0032
      8 C          63.0197   90.3631   11.1480 C.ar    1  UNL1        0.0385
      9 C          63.5715   90.4499   12.5401 C.ar    1  UNL1        0.1565
     10 C          64.5802   91.5059   12.8825 C.ar    1  UNL1        0.1147
     11 N          65.1320   91.5927   14.2747 N.ar    1  UNL1       -0.2466
     12 C          66.5027   94.5005   11.1257 C.ar    1  UNL1        0.0796
     13 C          66.1288   95.9507   11.0421 C.ar    1  UNL1        0.0412
     14 C          66.8087   96.5362    9.8401 C.ar    1  UNL1        0.1217
     15 N          67.6030   95.4479    9.1808 N.ar    1  UNL1       -0.1676
     16 N          67.4138   94.1897    9.9754 N.ar    1  UNL1       -0.2488
     17 C          68.0280   92.8551    9.6727 C.3     1  UNL1        0.1537
     18 O          63.1146   89.4806   13.5897 O.3     1  UNL1       -0.4691
     19 C          64.1094   88.5875   14.2699 C.3     1  UNL1        0.2330
     20 C          63.6977   87.7789   15.4643 C.ar    1  UNL1        0.0325
     21 C          63.2271   88.4682   16.7107 C.ar    1  UNL1       -0.0196
     22 C          63.1682   89.9661   16.7626 C.3     1  UNL1        0.0309
     23 C          62.8154   87.6596   17.9051 C.ar    1  UNL1        0.0162
     24 C          62.8744   86.1616   17.8531 C.ar    1  UNL1        0.0982
     25 N          63.3449   85.4723   16.6068 N.ar    1  UNL1       -0.2467
     26 C          63.7566   86.2810   15.4124 C.ar    1  UNL1        0.0780
     27 C          64.2272   85.5917   14.1660 C.3     1  UNL1        0.1355
     28 N          63.3600   84.5609   13.5060 N.am    1  UNL1       -0.2992
     29 C          63.3572   83.1485   14.0109 C.2     1  UNL1        0.2223
     30 O          64.2216   82.7667   15.1759 O.2     1  UNL1       -0.2751
     31 H          62.7927   84.8115   12.7414 H       1  UNL1        0.1498
     32 C          62.4901   82.1177   13.3508 C.3     1  UNL1        0.0765
     33 C          61.5061   81.3321   14.1660 C.3     1  UNL1        0.0096
     34 C          62.6069   81.8727   11.8756 C.3     1  UNL1        0.0096
@<TRIPOS>BOND
     1     1     2    1
     2     2     3   ar
     3     3     4   ar
     4     4    12    1
     5    12    13   ar
     6    13    14   ar
     7    14    15   ar
     8    15    16   ar
     9    16    17    1
    10     4     5   ar
    11     5     6   ar
    12     6     7   ar
    13     7     8   ar
    14     8     9   ar
    15     9    18    1
    16    18    19    1
    17    19    20    1
    18    20    21   ar
    19    21    22    1
    20    21    23   ar
    21    23    24   ar
    22    24    25   ar
    23    25    26   ar
    24    26    27    1
    25    27    28    1
    26    28    29   am
    27    29    30    2
    28    29    32    1
    29    32    33    1
    30    32    34    1
    31     9    10   ar
    32    10    11   ar
    33    11     2   ar
    34    16    12   ar
    35    10     5   ar
    36    26    20   ar
    37    28    31    1
@<TRIPOS>MOLECULE
*****
 34 37 0 0 0
SMALL
GASTEIGER

@<TRIPOS>ATOM
      1 C          63.4936   85.1118   13.7309 C.3     1  UNL1        0.0521
      2 C          63.1074   86.1812   12.7525 C.ar    1  UNL1        0.0595
      3 C          62.3143   85.8277   11.5293 C.ar    1  UNL1        0.0162
      4 C          61.9281   86.8971   10.5510 C.ar    1  UNL1        0.0201
      5 C          62.3349   88.3200   10.7957 C.ar    1  UNL1        0.0221
      6 C          61.9487   89.3894    9.8173 C.ar    1  UNL1        0.0017
      7 C          62.3555   90.8122   10.0621 C.ar    1  UNL1        0.0032
      8 C          63.1485   91.1657   11.2853 C.ar    1  UNL1        0.0385
      9 C          63.5348   90.0963   12.2637 C.ar    1  UNL1        0.1565
     10 C          63.1280   88.6735   12.0189 C.ar    1  UNL1        0.1147
     11 N          63.5142   87.6040   12.9973 N.ar    1  UNL1       -0.2466
     12 C          61.1350   86.5436    9.3278 C.ar    1  UNL1        0.0796
     13 C          59.7195   86.9522    9.0462 C.ar    1  UNL1        0.0412
     14 C          59.3279   86.3806    7.7159 C.ar    1  UNL1        0.1217
     15 N          60.5014   85.6186    7.1752 N.ar    1  UNL1       -0.1676
     16 N          61.6182   85.7194    8.1714 N.ar    1  UNL1       -0.2488
     17 C          62.9793   85.1039    8.0352 C.3     1  UNL1        0.1537
     18 O          64.3278   90.4498   13.4868 O.3     1  UNL1       -0.4691
     19 C          64.7844   91.8623   13.7024 C.3     1  UNL1        0.2330
     20 C          66.1414   92.1317   14.2819 C.ar    1  UNL1        0.0325
     21 C          66.2994   92.3315   15.7602 C.ar    1  UNL1       -0.0196
     22 C          65.1005   92.2618   16.6588 C.3     1  UNL1        0.0309
     23 C          67.6564   92.6009   16.3397 C.ar    1  UNL1        0.0162
     24 C          68.8554   92.6706   15.4410 C.ar    1  UNL1        0.0982
     25 N          68.6974   92.4708   13.9628 N.ar    1  UNL1       -0.2467
     26 C          67.3403   92.2014   13.3833 C.ar    1  UNL1        0.0780
     27 C          67.1823   92.0017   11.9051 C.3     1  UNL1        0.1355
     28 N          67.6385   93.0659   10.9514 N.am    1  UNL1       -0.2992
     29 C          66.6620   94.0828   10.4393 C.2     1  UNL1        0.2223
     30 O          65.2292   94.0355   10.8809 O.2     1  UNL1       -0.2751
     31 H          68.5789   93.0969   10.6616 H       1  UNL1        0.1498
     32 C          67.1182   95.1470    9.4857 C.3     1  UNL1        0.0765
     33 C          67.5763   94.7725    8.1073 C.3     1  UNL1        0.0096
     34 C          67.1162   96.5856    9.9104 C.3     1  UNL1        0.0096
@<TRIPOS>BOND
     1     1     2    1
     2     2     3   ar
     3     3     4   ar
     4     4    12    1
     5    12    13   ar
     6    13    14   ar
     7    14    15   ar
     8    15    16   ar
     9    16    17    1
    10     4     5   ar
    11     5     6   ar
    12     6     7   ar
    13     7     8   ar
    14     8     9   ar
    15     9    18    1
    16    18    19    1
    17    19    20    1
    18    20    21   ar
    19    21    22    1
    20    21    23   ar
    21    23    24   ar
    22    24    25   ar
    23    25    26   ar
    24    26    27    1
    25    27    28    1
    26    28    29   am
    27    29    30    2
    28    29    32    1
    29    32    33    1
    30    32    34    1
    31     9    10   ar
    32    10    11   ar
    33    11     2   ar
    34    16    12   ar
    35    10     5   ar
    36    26    20   ar
    37    28    31    1
@<TRIPOS>MOLECULE
*****
 34 37 0 0 0
SMALL
GASTEIGER

@<TRIPOS>ATOM
      1 C          67.5569   92.0223   15.4377 C.3     1  UNL1        0.0521
      2 C          66.7755   92.0736   14.1582 C.ar    1  UNL1        0.0595
      3 C          67.2154   92.9798   13.0467 C.ar    1  UNL1        0.0162
      4 C          66.4341   93.0311   11.7673 C.ar    1  UNL1        0.0201
      5 C          65.2130   92.1762   11.5993 C.ar    1  UNL1        0.0221
      6 C          64.4317   92.2276   10.3199 C.ar    1  UNL1        0.0017
      7 C          63.2107   91.3728   10.1520 C.ar    1  UNL1        0.0032
      8 C          62.7708   90.4666   11.2635 C.ar    1  UNL1        0.0385
      9 C          63.5521   90.4153   12.5429 C.ar    1  UNL1        0.1565
     10 C          64.7732   91.2701   12.7108 C.ar    1  UNL1        0.1147
     11 N          65.5545   91.2188   13.9903 N.ar    1  UNL1       -0.2466
     12 C          66.8739   93.9372   10.6558 C.ar    1  UNL1        0.0796
     13 C          67.5688   93.5138    9.3956 C.ar    1  UNL1        0.0412
     14 C          67.8204   94.7408    8.5703 C.ar    1  UNL1        0.1217
     15 N          67.2811   95.9225    9.3203 N.ar    1  UNL1       -0.1676
     16 N          66.6962   95.4259   10.6092 N.ar    1  UNL1       -0.2488
     17 C          66.0474   96.2699   11.6660 C.3     1  UNL1        0.1537
     18 O          63.1123   89.5092   13.6544 O.3     1  UNL1       -0.4691
     19 C          64.0786   88.5282   14.2493 C.3     1  UNL1        0.2330
     20 C          63.6675   87.6869   15.4211 C.ar    1  UNL1        0.0325
     21 C          63.2278   88.3417   16.6970 C.ar    1  UNL1       -0.0196
     22 C          63.1992   89.8378   16.8011 C.3     1  UNL1        0.0309
     23 C          62.8166   87.5004   17.8688 C.ar    1  UNL1        0.0162
     24 C          62.8452   86.0042   17.7647 C.ar    1  UNL1        0.0982
     25 N          63.2849   85.3495   16.4888 N.ar    1  UNL1       -0.2467
     26 C          63.6960   86.1908   15.3170 C.ar    1  UNL1        0.0780
     27 C          64.1357   85.5361   14.0411 C.3     1  UNL1        0.1355
     28 N          64.0019   84.0512   13.8752 N.am    1  UNL1       -0.2992
     29 C          63.5612   83.4802   12.5600 C.2     1  UNL1        0.2223
     30 O          63.2543   84.3940   11.4107 O.2     1  UNL1       -0.2751
     31 H          64.2033   83.4515   14.6295 H       1  UNL1        0.1498
     32 C          63.4274   81.9954   12.3941 C.3     1  UNL1        0.0765
     33 C          63.0916   81.4180   11.0510 C.3     1  UNL1        0.0096
     34 C          63.6293   81.0880   13.5713 C.3     1  UNL1        0.0096
@<TRIPOS>BOND
     1     1     2    1
     2     2     3   ar
     3     3     4   ar
     4     4    12    1
     5    12    13   ar
     6    13    14   ar
     7    14    15   ar
     8    15    16   ar
     9    16    17    1
    10     4     5   ar
    11     5     6   ar
    12     6     7   ar
    13     7     8   ar
    14     8     9   ar
    15     9    18    1
    16    18    19    1
    17    19    20    1
    18    20    21   ar
    19    21    22    1
    20    21    23   ar
    21    23    24   ar
    22    24    25   ar
    23    25    26   ar
    24    26    27    1
    25    27    28    1
    26    28    29   am
    27    29    30    2
    28    29    32    1
    29    32    33    1
    30    32    34    1
    31     9    10   ar
    32    10    11   ar
    33    11     2   ar
    34    16    12   ar
    35    10     5   ar
    36    26    20   ar
    37    28    31    1
@<TRIPOS>MOLECULE
*****
 34 37 0 0 0
SMALL
GASTEIGER

@<TRIPOS>ATOM
      1 C          63.8432   89.4398   15.8905 C.3     1  UNL1        0.0521
      2 C          63.7265   89.9359   14.4797 C.ar    1  UNL1        0.0595
      3 C          64.5830   91.0750   14.0119 C.ar    1  UNL1        0.0162
      4 C          64.4663   91.5710   12.6012 C.ar    1  UNL1        0.0201
      5 C          63.4931   90.9279   11.6581 C.ar    1  UNL1        0.0221
      6 C          63.3764   91.4240   10.2473 C.ar    1  UNL1        0.0017
      7 C          62.4032   90.7809    9.3043 C.ar    1  UNL1        0.0032
      8 C          61.5467   89.6418    9.7720 C.ar    1  UNL1        0.0385
      9 C          61.6634   89.1457   11.1828 C.ar    1  UNL1        0.1565
     10 C          62.6366   89.7888   12.1258 C.ar    1  UNL1        0.1147
     11 N          62.7533   89.2928   13.5367 N.ar    1  UNL1       -0.2466
     12 C          65.3228   92.7102   12.1334 C.ar    1  UNL1        0.0796
     13 C          65.4313   93.2107   10.7236 C.ar    1  UNL1        0.0412
     14 C          66.3968   94.3586   10.7122 C.ar    1  UNL1        0.1217
     15 N          66.8850   94.5676   12.1151 N.ar    1  UNL1       -0.1676
     16 N          66.2212   93.5488   12.9934 N.ar    1  UNL1       -0.2488
     17 C          66.4209   93.3955   14.4721 C.3     1  UNL1        0.1537
     18 O          60.8069   88.0066   11.6505 O.3     1  UNL1       -0.4691
     19 C          60.1493   87.1027   10.6503 C.3     1  UNL1        0.2330
     20 C          60.9823   86.3663    9.6434 C.ar    1  UNL1        0.0325
     21 C          60.5362   86.2892    8.2133 C.ar    1  UNL1       -0.0196
     22 C          59.2572   86.9486    7.7901 C.3     1  UNL1        0.0309
     23 C          61.3692   85.5528    7.2065 C.ar    1  UNL1        0.0162
     24 C          62.6484   84.8934    7.6298 C.ar    1  UNL1        0.0982
     25 N          63.0944   84.9704    9.0598 N.ar    1  UNL1       -0.2467
     26 C          62.2614   85.7069   10.0666 C.ar    1  UNL1        0.0780
     27 C          62.7075   85.7839   11.4967 C.3     1  UNL1        0.1355
     28 N          62.3434   84.6896   12.4559 N.am    1  UNL1       -0.2992
     29 C          63.1926   83.4563   12.5442 C.2     1  UNL1        0.2223
     30 O          64.4059   83.3173   11.6732 O.2     1  UNL1       -0.2751
     31 H          61.5471   84.7809   13.0276 H       1  UNL1        0.1498
     32 C          62.8285   82.3621   13.5034 C.3     1  UNL1        0.0765
     33 C          62.7124   80.9474   13.0184 C.3     1  UNL1        0.0096
     34 C          62.5805   82.6825   14.9476 C.3     1  UNL1        0.0096
@<TRIPOS>BOND
     1     1     2    1
     2     2     3   ar
     3     3     4   ar
     4     4    12    1
     5    12    13   ar
     6    13    14   ar
     7    14    15   ar
     8    15    16   ar
     9    16    17    1
    10     4     5   ar
    11     5     6   ar
    12     6     7   ar
    13     7     8   ar
    14     8     9   ar
    15     9    18    1
    16    18    19    1
    17    19    20    1
    18    20    21   ar
    19    21    22    1
    20    21    23   ar
    21    23    24   ar
    22    24    25   ar
    23    25    26   ar
    24    26    27    1
    25    27    28    1
    26    28    29   am
    27    29    30    2
    28    29    32    1
    29    32    33    1
    30    32    34    1
    31     9    10   ar
    32    10    11   ar
    33    11     2   ar
    34    16    12   ar
    35    10     5   ar
    36    26    20   ar
    37    28    31    1
@<TRIPOS>MOLECULE
*****
 34 37 0 0 0
SMALL
GASTEIGER

@<TRIPOS>ATOM
      1 C          63.5577   88.1191   15.8357 C.3     1  UNL1        0.0521
      2 C          64.0271   89.1838   14.8891 C.ar    1  UNL1        0.0595
      3 C          65.1716   90.0751   15.2707 C.ar    1  UNL1        0.0162
      4 C          65.6410   91.1399   14.3242 C.ar    1  UNL1        0.0201
      5 C          64.9660   91.3133   12.9959 C.ar    1  UNL1        0.0221
      6 C          65.4354   92.3780   12.0494 C.ar    1  UNL1        0.0017
      7 C          64.7603   92.5514   10.7212 C.ar    1  UNL1        0.0032
      8 C          63.6158   91.6601   10.3395 C.ar    1  UNL1        0.0385
      9 C          63.1464   90.5953   11.2861 C.ar    1  UNL1        0.1565
     10 C          63.8215   90.4220   12.6142 C.ar    1  UNL1        0.1147
     11 N          63.3520   89.3572   13.5609 N.ar    1  UNL1       -0.2466
     12 C          66.7855   92.0312   14.7059 C.ar    1  UNL1        0.0796
     13 C          66.8241   92.9621   15.8814 C.ar    1  UNL1        0.0412
     14 C          68.1548   93.6543   15.8811 C.ar    1  UNL1        0.1217
     15 N          68.9387   93.1513   14.7053 N.ar    1  UNL1       -0.1676
     16 N          68.0924   92.1482   13.9790 N.ar    1  UNL1       -0.2488
     17 C          68.4843   91.3943   12.7427 C.3     1  UNL1        0.1537
     18 O          62.0019   89.7040   10.9044 O.3     1  UNL1       -0.4691
     19 C          62.2686   88.3266   10.3739 C.3     1  UNL1        0.2330
     20 C          61.3255   87.7081    9.3850 C.ar    1  UNL1        0.0325
     21 C          60.1647   88.4996    8.8594 C.ar    1  UNL1       -0.0196
     22 C          59.9470   89.9095    9.3228 C.3     1  UNL1        0.0309
     23 C          59.2216   87.8811    7.8704 C.ar    1  UNL1        0.0162
     24 C          59.4393   86.4712    7.4070 C.ar    1  UNL1        0.0982
     25 N          60.6000   85.6797    7.9326 N.ar    1  UNL1       -0.2467
     26 C          61.5431   86.2982    8.9216 C.ar    1  UNL1        0.0780
     27 C          62.7038   85.5068    9.4472 C.3     1  UNL1        0.1355
     28 N          62.5895   84.7890   10.7594 N.am    1  UNL1       -0.2992
     29 C          63.4755   83.6144   11.0514 C.2     1  UNL1        0.2223
     30 O          64.4759   83.1576   10.0314 O.2     1  UNL1       -0.2751
     31 H          61.9329   85.0888   11.4289 H       1  UNL1        0.1498
     32 C          63.3612   82.8967   12.3636 C.3     1  UNL1        0.0765
     33 C          62.7222   81.5410   12.4237 C.3     1  UNL1        0.0096
     34 C          63.8859   83.5347   13.6157 C.3     1  UNL1        0.0096
@<TRIPOS>BOND
     1     1     2    1
     2     2     3   ar
     3     3     4   ar
     4     4    12    1
     5    12    13   ar
     6    13    14   ar
     7    14    15   ar
     8    15    16   ar
     9    16    17    1
    10     4     5   ar
    11     5     6   ar
    12     6     7   ar
    13     7     8   ar
    14     8     9   ar
    15     9    18    1
    16    18    19    1
    17    19    20    1
    18    20    21   ar
    19    21    22    1
    20    21    23   ar
    21    23    24   ar
    22    24    25   ar
    23    25    26   ar
    24    26    27    1
    25    27    28    1
    26    28    29   am
    27    29    30    2
    28    29    32    1
    29    32    33    1
    30    32    34    1
    31     9    10   ar
    32    10    11   ar
    33    11     2   ar
    34    16    12   ar
    35    10     5   ar
    36    26    20   ar
    37    28    31    1
@<TRIPOS>MOLECULE
*****
 34 37 0 0 0
SMALL
GASTEIGER

@<TRIPOS>ATOM
      1 C          67.3655   91.8631   15.5844 C.3     1  UNL1        0.0521
      2 C          66.6204   92.0228   14.2924 C.ar    1  UNL1        0.0595
      3 C          66.9368   93.1714   13.3812 C.ar    1  UNL1        0.0162
      4 C          66.1917   93.3312   12.0892 C.ar    1  UNL1        0.0201
      5 C          65.1301   92.3422   11.7084 C.ar    1  UNL1        0.0221
      6 C          64.3849   92.5019   10.4164 C.ar    1  UNL1        0.0017
      7 C          63.3234   91.5129   10.0357 C.ar    1  UNL1        0.0032
      8 C          63.0069   90.3642   10.9470 C.ar    1  UNL1        0.0385
      9 C          63.7520   90.2045   12.2389 C.ar    1  UNL1        0.1565
     10 C          64.8136   91.1935   12.6197 C.ar    1  UNL1        0.1147
     11 N          65.5588   91.0338   13.9117 N.ar    1  UNL1       -0.2466
     12 C          66.5081   94.4798   11.1779 C.ar    1  UNL1        0.0796
     13 C          66.0417   95.8952   11.3487 C.ar    1  UNL1        0.0412
     14 C          66.5919   96.7050   10.2122 C.ar    1  UNL1        0.1217
     15 N          67.3983   95.7901    9.3390 N.ar    1  UNL1       -0.1676
     16 N          67.3466   94.4149    9.9358 N.ar    1  UNL1       -0.2488
     17 C          68.0158   93.1898    9.3869 C.3     1  UNL1        0.1537
     18 O          63.4356   89.0558   13.1502 O.3     1  UNL1       -0.4691
     19 C          63.1564   87.6983   12.5766 C.3     1  UNL1        0.2330
     20 C          63.4697   86.4678   13.3751 C.ar    1  UNL1        0.0325
     21 C          63.9913   86.5952   14.7758 C.ar    1  UNL1       -0.0196
     22 C          64.1997   87.9532   15.3778 C.3     1  UNL1        0.0309
     23 C          64.3045   85.3647   15.5743 C.ar    1  UNL1        0.0162
     24 C          64.0961   84.0067   14.9722 C.ar    1  UNL1        0.0982
     25 N          63.5745   83.8793   13.5717 N.ar    1  UNL1       -0.2467
     26 C          63.2613   85.1098   12.7731 C.ar    1  UNL1        0.0780
     27 C          62.7397   84.9824   11.3725 C.3     1  UNL1        0.1355
     28 N          61.4893   85.7063   10.9691 N.am    1  UNL1       -0.2992
     29 C          61.4559   86.4903    9.6907 C.2     1  UNL1        0.2223
     30 O          62.6728   86.5504    8.8158 O.2     1  UNL1       -0.2751
     31 H          60.6906   85.6668   11.5433 H       1  UNL1        0.1498
     32 C          60.2056   87.2142    9.2873 C.3     1  UNL1        0.0765
     33 C          59.2927   86.6176    8.2574 C.3     1  UNL1        0.0096
     34 C          59.8682   88.5347    9.9137 C.3     1  UNL1        0.0096
@<TRIPOS>BOND
     1     1     2    1
     2     2     3   ar
     3     3     4   ar
     4     4    12    1
     5    12    13   ar
     6    13    14   ar
     7    14    15   ar
     8    15    16   ar
     9    16    17    1
    10     4     5   ar
    11     5     6   ar
    12     6     7   ar
    13     7     8   ar
    14     8     9   ar
    15     9    18    1
    16    18    19    1
    17    19    20    1
    18    20    21   ar
    19    21    22    1
    20    21    23   ar
    21    23    24   ar
    22    24    25   ar
    23    25    26   ar
    24    26    27    1
    25    27    28    1
    26    28    29   am
    27    29    30    2
    28    29    32    1
    29    32    33    1
    30    32    34    1
    31     9    10   ar
    32    10    11   ar
    33    11     2   ar
    34    16    12   ar
    35    10     5   ar
    36    26    20   ar
    37    28    31    1
@<TRIPOS>MOLECULE
*****
 34 37 0 0 0
SMALL
GASTEIGER

@<TRIPOS>ATOM
      1 C          63.4269   84.4192   13.0632 C.3     1  UNL1        0.0521
      2 C          62.9536   85.4171   12.0482 C.ar    1  UNL1        0.0595
      3 C          62.6106   84.9684   10.6585 C.ar    1  UNL1        0.0162
      4 C          62.1374   85.9663    9.6435 C.ar    1  UNL1        0.0201
      5 C          62.0071   87.4129   10.0181 C.ar    1  UNL1        0.0221
      6 C          61.5339   88.4108    9.0031 C.ar    1  UNL1        0.0017
      7 C          61.4036   89.8574    9.3777 C.ar    1  UNL1        0.0032
      8 C          61.7465   90.3061   10.7673 C.ar    1  UNL1        0.0385
      9 C          62.2198   89.3082   11.7824 C.ar    1  UNL1        0.1565
     10 C          62.3501   87.8617   11.4077 C.ar    1  UNL1        0.1147
     11 N          62.8233   86.8637   12.4228 N.ar    1  UNL1       -0.2466
     12 C          61.7945   85.5175    8.2539 C.ar    1  UNL1        0.0796
     13 C          62.7059   84.7864    7.3134 C.ar    1  UNL1        0.0412
     14 C          61.9546   84.5381    6.0390 C.ar    1  UNL1        0.1217
     15 N          60.5788   85.1159    6.1920 N.ar    1  UNL1       -0.1676
     16 N          60.4799   85.7212    7.5609 N.ar    1  UNL1       -0.2488
     17 C          59.2774   86.4094    8.1357 C.3     1  UNL1        0.1537
     18 O          62.5627   89.7570   13.1720 O.3     1  UNL1       -0.4691
     19 C          63.9872   89.7242   13.6406 C.3     1  UNL1        0.2330
     20 C          64.4965   90.7878   14.5676 C.ar    1  UNL1        0.0325
     21 C          64.0729   90.7941   16.0066 C.ar    1  UNL1       -0.0196
     22 C          63.1401   89.7369   16.5184 C.3     1  UNL1        0.0309
     23 C          64.5822   91.8577   16.9336 C.ar    1  UNL1        0.0162
     24 C          65.5151   92.9150   16.4217 C.ar    1  UNL1        0.0982
     25 N          65.9386   92.9086   14.9828 N.ar    1  UNL1       -0.2467
     26 C          65.4294   91.8450   14.0557 C.ar    1  UNL1        0.0780
     27 C          65.8529   91.8386   12.6168 C.3     1  UNL1        0.1355
     28 N          65.7423   93.0898   11.7968 N.am    1  UNL1       -0.2992
     29 C          66.7951   93.4152   10.7792 C.2     1  UNL1        0.2223
     30 O          67.9586   92.4894   10.5815 O.2     1  UNL1       -0.2751
     31 H          64.9786   93.6975   11.9266 H       1  UNL1        0.1498
     32 C          66.6844   94.6664    9.9592 C.3     1  UNL1        0.0765
     33 C          67.5956   94.8776    8.7866 C.3     1  UNL1        0.0096
     34 C          65.6626   95.7063   10.3119 C.3     1  UNL1        0.0096
@<TRIPOS>BOND
     1     1     2    1
     2     2     3   ar
     3     3     4   ar
     4     4    12    1
     5    12    13   ar
     6    13    14   ar
     7    14    15   ar
     8    15    16   ar
     9    16    17    1
    10     4     5   ar
    11     5     6   ar
    12     6     7   ar
    13     7     8   ar
    14     8     9   ar
    15     9    18    1
    16    18    19    1
    17    19    20    1
    18    20    21   ar
    19    21    22    1
    20    21    23   ar
    21    23    24   ar
    22    24    25   ar
    23    25    26   ar
    24    26    27    1
    25    27    28    1
    26    28    29   am
    27    29    30    2
    28    29    32    1
    29    32    33    1
    30    32    34    1
    31     9    10   ar
    32    10    11   ar
    33    11     2   ar
    34    16    12   ar
    35    10     5   ar
    36    26    20   ar
    37    28    31    1
