@<TRIPOS>MOLECULE
*****
 37 40 0 0 0
SMALL
GASTEIGER

@<TRIPOS>ATOM
      1 N          65.7486   93.3691   12.4552 N.3     1  UNL1       -0.1559
      2 C          64.7737   92.4173   11.8278 C.3     1  UNL1        0.1169
      3 C          64.2967   91.2191   12.5937 C.3     1  UNL1        0.1127
      4 N          64.7946   90.9726   13.9870 N.pl3   1  UNL1       -0.2752
      5 C          65.7696   91.9244   14.6144 C.3     1  UNL1        0.1127
      6 C          66.2466   93.1226   13.8485 C.3     1  UNL1        0.1169
      7 C          64.3176   89.7743   14.7530 C.ar    1  UNL1        0.2205
      8 N          63.4854   89.9560   15.9877 N.ar    1  UNL1       -0.2089
      9 C          63.0084   88.7577   16.7536 C.ar    1  UNL1        0.1402
     10 C          63.3636   87.3778   16.2848 C.ar    1  UNL1        0.1775
     11 C          64.1958   87.1962   15.0501 C.ar    1  UNL1        0.1402
     12 N          64.6728   88.3945   14.2842 N.ar    1  UNL1       -0.2089
     13 O          62.8866   86.1795   17.0507 O.3     1  UNL1       -0.4641
     14 C          62.1884   85.0613   16.3351 C.3     1  UNL1        0.2691
     15 C          62.8122   84.4442   15.1185 C.ar    1  UNL1        0.1667
     16 C          63.8757   83.3864   15.1134 C.ar    1  UNL1        0.0398
     17 C          64.2029   83.0649   13.6852 C.ar    1  UNL1        0.0444
     18 C          63.3416   83.9242   12.8077 C.ar    1  UNL1        0.2163
     19 O          62.4822   84.7766   13.6936 O.2     1  UNL1       -0.4499
     20 C          63.3401   83.9300   11.3077 C.3     1  UNL1        0.4510
     21 F          63.3386   83.9358    9.8078 F       1  UNL1       -0.1632
     22 F          64.5959   83.1096   11.3033 F       1  UNL1       -0.1632
     23 F          62.0843   84.7504   11.3122 F       1  UNL1       -0.1632
     24 S          66.2257   94.5674   11.6892 S.O2    1  UNL1        0.0460
     25 O          65.6073   94.0146   10.4394 O.2     1  UNL1       -0.1572
     26 O          66.8441   95.1201   12.9390 O.2     1  UNL1       -0.1572
     27 C          66.7027   95.7656   10.9233 C.3     1  UNL1        0.1958
     28 C          64.9389   96.6821   10.6423 C.3     1  UNL1        0.0310
     29 C          65.9823   96.1966    9.6801 C.3     1  UNL1        0.1509
     30 N          65.0439   96.7291    8.6382 N.am    1  UNL1       -0.2825
     31 C          65.6579   96.4825    7.2919 C.2     1  UNL1        0.3068
     32 O          65.0591   96.8554    5.9681 O.2     1  UNL1       -0.2524
     33 N          66.9758   95.7977    7.5019 N.am    1  UNL1       -0.2383
     34 C          67.1763   95.6210    8.9779 C.2     1  UNL1        0.2469
     35 O          68.3625   94.9810    9.6361 O.2     1  UNL1       -0.2729
     36 H          64.1771   97.1640    8.8080 H       1  UNL1        0.1514
     37 H          67.5996   95.5140    6.7951 H       1  UNL1        0.1591
@<TRIPOS>BOND
     1    29    28    1
     2    29    27    1
     3    27    24    1
     4    24    25    2
     5    24    26    2
     6    24     1    1
     7     1     2    1
     8     2     3    1
     9     3     4    1
    10     4     7    1
    11     7     8   ar
    12     8     9   ar
    13     9    10   ar
    14    10    13    1
    15    13    14    1
    16    14    15    1
    17    15    16   ar
    18    16    17   ar
    19    17    18   ar
    20    18    20    1
    21    20    21    1
    22    20    22    1
    23    20    23    1
    24    18    19   ar
    25    10    11   ar
    26    11    12   ar
    27     4     5    1
    28     5     6    1
    29    29    30    1
    30    30    31   am
    31    31    32    2
    32    31    33   am
    33    33    34   am
    34    34    35    2
    35    34    29    1
    36     6     1    1
    37    12     7   ar
    38    19    15   ar
    39    30    36    1
    40    33    37    1
@<TRIPOS>MOLECULE
*****
 37 40 0 0 0
SMALL
GASTEIGER

@<TRIPOS>ATOM
      1 N          65.3845   91.9341   13.0848 N.3     1  UNL1       -0.1559
      2 C          64.2841   91.2070   12.3703 C.3     1  UNL1        0.1169
      3 C          63.8062   89.8805   12.8819 C.3     1  UNL1        0.1127
      4 N          64.4286   89.2810   14.1080 N.pl3   1  UNL1       -0.2752
      5 C          65.5290   90.0081   14.8225 C.3     1  UNL1        0.1127
      6 C          66.0069   91.3347   14.3108 C.3     1  UNL1        0.1169
      7 C          63.9507   87.9544   14.6196 C.ar    1  UNL1        0.2205
      8 N          63.5520   87.8047   16.0579 N.ar    1  UNL1       -0.2089
      9 C          63.0740   86.4780   16.5695 C.ar    1  UNL1        0.1402
     10 C          62.9947   85.3012   15.6428 C.ar    1  UNL1        0.1775
     11 C          63.3935   85.4510   14.2045 C.ar    1  UNL1        0.1402
     12 N          63.8714   86.7776   13.6929 N.ar    1  UNL1       -0.2089
     13 O          62.5168   83.9746   16.1543 O.3     1  UNL1       -0.4641
     14 C          63.2336   82.7169   15.7616 C.3     1  UNL1        0.2691
     15 C          63.2044   82.2509   14.3360 C.ar    1  UNL1        0.1667
     16 C          62.4918   81.0361   13.8200 C.ar    1  UNL1        0.0398
     17 C          62.7296   80.9523   12.3414 C.ar    1  UNL1        0.0444
     18 C          63.5893   82.1154   11.9435 C.ar    1  UNL1        0.2163
     19 O          63.8827   82.9180   13.1763 O.2     1  UNL1       -0.4499
     20 C          64.0710   82.4220   10.5565 C.3     1  UNL1        0.4510
     21 F          64.5526   82.7287    9.1695 F       1  UNL1       -0.1632
     22 F          65.0576   83.4036   11.1161 F       1  UNL1       -0.1632
     23 F          63.0843   81.4405    9.9968 F       1  UNL1       -0.1632
     24 S          65.8625   93.2608   12.5732 S.O2    1  UNL1        0.0460
     25 O          64.9626   93.1251   11.3808 O.2     1  UNL1       -0.1572
     26 O          66.7624   93.3964   13.7655 O.2     1  UNL1       -0.1572
     27 C          66.3404   94.5873   12.0615 C.3     1  UNL1        0.1958
     28 C          67.1646   93.2854   10.7749 C.3     1  UNL1        0.0310
     29 C          66.7765   94.7274   10.6332 C.3     1  UNL1        0.1509
     30 N          67.2937   94.5659    9.2345 N.am    1  UNL1       -0.2825
     31 C          67.1341   95.8789    8.5269 C.2     1  UNL1        0.3068
     32 O          67.5222   96.1682    7.1071 O.2     1  UNL1       -0.2524
     33 N          66.5182   96.8518    9.4883 N.am    1  UNL1       -0.2383
     34 C          66.2972   96.1401   10.7900 C.2     1  UNL1        0.2469
     35 O          65.7015   96.7364   12.0308 O.2     1  UNL1       -0.2729
     36 H          67.6716   93.7428    8.8486 H       1  UNL1        0.1514
     37 H          66.2978   97.7922    9.2982 H       1  UNL1        0.1591
@<TRIPOS>BOND
     1    29    28    1
     2    29    27    1
     3    27    24    1
     4    24    25    2
     5    24    26    2
     6    24     1    1
     7     1     2    1
     8     2     3    1
     9     3     4    1
    10     4     7    1
    11     7     8   ar
    12     8     9   ar
    13     9    10   ar
    14    10    13    1
    15    13    14    1
    16    14    15    1
    17    15    16   ar
    18    16    17   ar
    19    17    18   ar
    20    18    20    1
    21    20    21    1
    22    20    22    1
    23    20    23    1
    24    18    19   ar
    25    10    11   ar
    26    11    12   ar
    27     4     5    1
    28     5     6    1
    29    29    30    1
    30    30    31   am
    31    31    32    2
    32    31    33   am
    33    33    34   am
    34    34    35    2
    35    34    29    1
    36     6     1    1
    37    12     7   ar
    38    19    15   ar
    39    30    36    1
    40    33    37    1
@<TRIPOS>MOLECULE
*****
 37 40 0 0 0
SMALL
GASTEIGER

@<TRIPOS>ATOM
      1 N          63.4162   86.1318   13.5254 N.3     1  UNL1       -0.1559
      2 C          63.0058   87.0560   12.4176 C.3     1  UNL1        0.1169
      3 C          63.4754   88.4806   12.4166 C.3     1  UNL1        0.1127
      4 N          64.3555   88.9809   13.5234 N.pl3   1  UNL1       -0.2752
      5 C          64.7660   88.0567   14.6313 C.3     1  UNL1        0.1127
      6 C          64.2963   86.6322   14.6322 C.3     1  UNL1        0.1169
      7 C          64.8251   90.4056   13.5224 C.ar    1  UNL1        0.2205
      8 N          65.6134   90.9362   14.6830 N.ar    1  UNL1       -0.2089
      9 C          66.0830   92.3609   14.6820 C.ar    1  UNL1        0.1402
     10 C          65.7643   93.2548   13.5204 C.ar    1  UNL1        0.1775
     11 C          64.9760   92.7240   12.3597 C.ar    1  UNL1        0.1402
     12 N          64.5064   91.2995   12.3608 N.ar    1  UNL1       -0.2089
     13 O          66.2339   94.6794   13.5193 O.3     1  UNL1       -0.4641
     14 C          66.0794   95.5190   12.2860 C.3     1  UNL1        0.2691
     15 C          66.7163   95.0856   10.9989 C.ar    1  UNL1        0.1667
     16 C          66.6896   95.8417    9.7036 C.ar    1  UNL1        0.0398
     17 C          67.4485   95.0435    8.6853 C.ar    1  UNL1        0.0444
     18 C          67.9442   93.7942    9.3513 C.ar    1  UNL1        0.2163
     19 O          67.4917   93.8202   10.7811 O.2     1  UNL1       -0.4499
     20 C          68.7509   92.7092    8.7014 C.3     1  UNL1        0.4510
     21 F          69.5575   91.6244    8.0516 F       1  UNL1       -0.1632
     22 F          68.9769   92.0746   10.0416 F       1  UNL1       -0.1632
     23 F          68.5248   93.3439    7.3612 F       1  UNL1       -0.1632
     24 S          62.9466   84.7072   13.5264 S.O2    1  UNL1        0.0460
     25 O          61.6694   85.1278   12.8617 O.2     1  UNL1       -0.1572
     26 O          64.2238   84.2866   14.1911 O.2     1  UNL1       -0.1572
     27 C          62.4770   83.2826   13.5274 C.3     1  UNL1        0.1958
     28 C          62.9539   83.7186   11.6268 C.3     1  UNL1        0.0310
     29 C          62.7131   82.4142   12.3274 C.3     1  UNL1        0.1509
     30 N          62.9996   81.8185   10.9809 N.am    1  UNL1       -0.2825
     31 C          62.8866   80.3275   11.1002 C.2     1  UNL1        0.3068
     32 O          63.0935   79.3363    9.9935 O.2     1  UNL1       -0.2524
     33 N          62.5302   80.0018   12.5203 N.am    1  UNL1       -0.2383
     34 C          62.4230   81.2914   13.2788 C.2     1  UNL1        0.2469
     35 O          62.0850   81.4334   14.7333 O.2     1  UNL1       -0.2729
     36 H          63.2227   82.3183   10.1626 H       1  UNL1        0.1514
     37 H          62.3911   79.0999   12.8898 H       1  UNL1        0.1591
@<TRIPOS>BOND
     1    29    28    1
     2    29    27    1
     3    27    24    1
     4    24    25    2
     5    24    26    2
     6    24     1    1
     7     1     2    1
     8     2     3    1
     9     3     4    1
    10     4     7    1
    11     7     8   ar
    12     8     9   ar
    13     9    10   ar
    14    10    13    1
    15    13    14    1
    16    14    15    1
    17    15    16   ar
    18    16    17   ar
    19    17    18   ar
    20    18    20    1
    21    20    21    1
    22    20    22    1
    23    20    23    1
    24    18    19   ar
    25    10    11   ar
    26    11    12   ar
    27     4     5    1
    28     5     6    1
    29    29    30    1
    30    30    31   am
    31    31    32    2
    32    31    33   am
    33    33    34   am
    34    34    35    2
    35    34    29    1
    36     6     1    1
    37    12     7   ar
    38    19    15   ar
    39    30    36    1
    40    33    37    1
@<TRIPOS>MOLECULE
*****
 37 40 0 0 0
SMALL
GASTEIGER

@<TRIPOS>ATOM
      1 N          62.5070   94.7781    0.4426 N.3     1  UNL1       -0.1559
      2 C          61.0930   95.0831    0.8394 C.3     1  UNL1        0.1169
      3 C          60.4146   94.2570    1.8917 C.3     1  UNL1        0.1127
      4 N          61.1502   93.1259    2.5471 N.pl3   1  UNL1       -0.2752
      5 C          62.5642   92.8209    2.1502 C.3     1  UNL1        0.1127
      6 C          63.2426   93.6470    1.0980 C.3     1  UNL1        0.1169
      7 C          60.4717   92.2998    3.5993 C.ar    1  UNL1        0.2205
      8 N          61.2683   91.3298    4.4207 N.ar    1  UNL1       -0.2089
      9 C          60.5898   90.5037    5.4729 C.ar    1  UNL1        0.1402
     10 C          59.1147   90.6476    5.7038 C.ar    1  UNL1        0.1775
     11 C          58.3181   91.6175    4.8825 C.ar    1  UNL1        0.1402
     12 N          58.9966   92.4436    3.8302 N.ar    1  UNL1       -0.2089
     13 O          58.4362   89.8215    6.7560 O.3     1  UNL1       -0.4641
     14 C          59.0356   88.5156    7.1864 C.3     1  UNL1        0.2691
     15 C          59.9191   88.4587    8.3973 C.ar    1  UNL1        0.1667
     16 C          60.3744   89.6326    9.2125 C.ar    1  UNL1        0.0398
     17 C          61.2391   89.1174   10.3245 C.ar    1  UNL1        0.0444
     18 C          61.3183   87.6249   10.1967 C.ar    1  UNL1        0.2163
     19 O          60.5025   87.2178    9.0056 O.2     1  UNL1       -0.4499
     20 C          62.0796   86.7016   11.1011 C.3     1  UNL1        0.4510
     21 F          62.8409   85.7784   12.0055 F       1  UNL1       -0.1632
     22 F          62.8698   87.8648   11.6234 F       1  UNL1       -0.1632
     23 F          61.2894   85.5385   10.5789 F       1  UNL1       -0.1632
     24 S          63.1855   95.6043   -0.6097 S.O2    1  UNL1        0.0460
     25 O          62.6983   96.8556    0.0586 O.2     1  UNL1       -0.1572
     26 O          63.6728   94.3529   -1.2780 O.2     1  UNL1       -0.1572
     27 C          63.8640   96.4304   -1.6619 C.3     1  UNL1        0.1958
     28 C          62.1592   96.1602   -2.6868 C.3     1  UNL1        0.0310
     29 C          63.5973   96.1624   -3.1134 C.3     1  UNL1        0.1509
     30 N          63.0299   95.8939   -4.4758 N.am    1  UNL1       -0.2825
     31 C          64.1732   95.7863   -5.4410 C.2     1  UNL1        0.3068
     32 O          64.0620   95.5229   -6.9135 O.2     1  UNL1       -0.2524
     33 N          65.4470   95.9882   -4.6751 N.am    1  UNL1       -0.2383
     34 C          65.0911   96.2206   -3.2366 C.2     1  UNL1        0.2469
     35 O          66.0591   96.4679   -2.1178 O.2     1  UNL1       -0.2729
     36 H          62.0749   95.8042   -4.6975 H       1  UNL1        0.1514
     37 H          66.3569   95.9711   -5.0506 H       1  UNL1        0.1591
@<TRIPOS>BOND
     1    29    28    1
     2    29    27    1
     3    27    24    1
     4    24    25    2
     5    24    26    2
     6    24     1    1
     7     1     2    1
     8     2     3    1
     9     3     4    1
    10     4     7    1
    11     7     8   ar
    12     8     9   ar
    13     9    10   ar
    14    10    13    1
    15    13    14    1
    16    14    15    1
    17    15    16   ar
    18    16    17   ar
    19    17    18   ar
    20    18    20    1
    21    20    21    1
    22    20    22    1
    23    20    23    1
    24    18    19   ar
    25    10    11   ar
    26    11    12   ar
    27     4     5    1
    28     5     6    1
    29    29    30    1
    30    30    31   am
    31    31    32    2
    32    31    33   am
    33    33    34   am
    34    34    35    2
    35    34    29    1
    36     6     1    1
    37    12     7   ar
    38    19    15   ar
    39    30    36    1
    40    33    37    1
@<TRIPOS>MOLECULE
*****
 37 40 0 0 0
SMALL
GASTEIGER

@<TRIPOS>ATOM
      1 N          61.7503   94.6283    0.1902 N.3     1  UNL1       -0.1559
      2 C          60.2854   94.6737    0.5096 C.3     1  UNL1        0.1169
      3 C          59.7396   93.8584    1.6441 C.3     1  UNL1        0.1127
      4 N          60.6586   92.9977    2.4593 N.pl3   1  UNL1       -0.2752
      5 C          62.1235   92.9523    2.1400 C.3     1  UNL1        0.1127
      6 C          62.6693   93.7676    1.0054 C.3     1  UNL1        0.1169
      7 C          60.1127   92.1824    3.5939 C.ar    1  UNL1        0.2205
      8 N          58.6453   92.2156    3.9033 N.ar    1  UNL1       -0.2089
      9 C          58.0994   91.4002    5.0379 C.ar    1  UNL1        0.1402
     10 C          59.0209   90.5518    5.8631 C.ar    1  UNL1        0.1775
     11 C          60.4883   90.5186    5.5537 C.ar    1  UNL1        0.1402
     12 N          61.0342   91.3339    4.4191 N.ar    1  UNL1       -0.2089
     13 O          58.4750   89.7365    6.9977 O.3     1  UNL1       -0.4641
     14 C          59.0081   88.3583    7.2553 C.3     1  UNL1        0.2691
     15 C          60.1043   88.1535    8.2586 C.ar    1  UNL1        0.1667
     16 C          60.7471   86.8437    8.6072 C.ar    1  UNL1        0.0398
     17 C          61.7901   87.1032    9.6534 C.ar    1  UNL1        0.0444
     18 C          61.7920   88.5733    9.9515 C.ar    1  UNL1        0.2163
     19 O          60.7501   89.2224    9.0894 O.2     1  UNL1       -0.4499
     20 C          62.6799   89.2717   10.9384 C.3     1  UNL1        0.4510
     21 F          63.5677   89.9701   11.9252 F       1  UNL1       -0.1632
     22 F          62.5369   90.5482   10.1637 F       1  UNL1       -0.1632
     23 F          62.8229   87.9952   11.7131 F       1  UNL1       -0.1632
     24 S          62.2962   95.4436   -0.9444 S.O2    1  UNL1        0.0460
     25 O          62.4200   94.2021   -1.7770 O.2     1  UNL1       -0.1572
     26 O          62.1725   96.6852   -0.1119 O.2     1  UNL1       -0.1572
     27 C          62.8421   96.2589   -2.0790 C.3     1  UNL1        0.1958
     28 C          64.6713   95.4996   -1.7517 C.3     1  UNL1        0.0310
     29 C          63.8635   95.6670   -3.0045 C.3     1  UNL1        0.1509
     30 N          65.0537   95.0400   -3.6680 N.am    1  UNL1       -0.2825
     31 C          64.7679   94.9437   -5.1374 C.2     1  UNL1        0.3068
     32 O          65.6875   94.3791   -6.1793 O.2     1  UNL1       -0.2524
     33 N          63.4010   95.5110   -5.3820 N.am    1  UNL1       -0.2383
     34 C          62.8421   95.9580   -4.0637 C.2     1  UNL1        0.2469
     35 O          61.4977   96.5859   -3.8435 O.2     1  UNL1       -0.2729
     36 H          65.8778   94.7438   -3.2181 H       1  UNL1        0.1514
     37 H          62.9500   95.5782   -6.2545 H       1  UNL1        0.1591
@<TRIPOS>BOND
     1    29    28    1
     2    29    27    1
     3    27    24    1
     4    24    25    2
     5    24    26    2
     6    24     1    1
     7     1     2    1
     8     2     3    1
     9     3     4    1
    10     4     7    1
    11     7     8   ar
    12     8     9   ar
    13     9    10   ar
    14    10    13    1
    15    13    14    1
    16    14    15    1
    17    15    16   ar
    18    16    17   ar
    19    17    18   ar
    20    18    20    1
    21    20    21    1
    22    20    22    1
    23    20    23    1
    24    18    19   ar
    25    10    11   ar
    26    11    12   ar
    27     4     5    1
    28     5     6    1
    29    29    30    1
    30    30    31   am
    31    31    32    2
    32    31    33   am
    33    33    34   am
    34    34    35    2
    35    34    29    1
    36     6     1    1
    37    12     7   ar
    38    19    15   ar
    39    30    36    1
    40    33    37    1
@<TRIPOS>MOLECULE
*****
 37 40 0 0 0
SMALL
GASTEIGER

@<TRIPOS>ATOM
      1 N          62.2047   86.3262   11.4214 N.3     1  UNL1       -0.1559
      2 C          62.3406   87.8192   11.3741 C.3     1  UNL1        0.1169
      3 C          61.6714   88.5990   10.2813 C.3     1  UNL1        0.1127
      4 N          60.8663   87.8857    9.2359 N.pl3   1  UNL1       -0.2752
      5 C          60.7303   86.3926    9.2832 C.3     1  UNL1        0.1127
      6 C          61.3995   85.6129   10.3759 C.3     1  UNL1        0.1169
      7 C          60.1971   88.6655    8.1431 C.ar    1  UNL1        0.2205
      8 N          60.8300   89.9219    7.6226 N.ar    1  UNL1       -0.2089
      9 C          60.1607   90.7017    6.5298 C.ar    1  UNL1        0.1402
     10 C          58.8587   90.2251    5.9576 C.ar    1  UNL1        0.1775
     11 C          58.2258   88.9686    6.4781 C.ar    1  UNL1        0.1402
     12 N          58.8950   88.1889    7.5708 N.ar    1  UNL1       -0.2089
     13 O          58.1895   91.0049    4.8648 O.3     1  UNL1       -0.4641
     14 C          58.6992   92.3661    4.4946 C.3     1  UNL1        0.2691
     15 C          59.7170   92.5145    3.4028 C.ar    1  UNL1        0.1667
     16 C          59.4350   92.9008    1.9810 C.ar    1  UNL1        0.0398
     17 C          60.7392   92.9277    1.2405 C.ar    1  UNL1        0.0444
     18 C          61.8273   92.5579    2.2046 C.ar    1  UNL1        0.2163
     19 O          61.1955   92.3026    3.5409 O.2     1  UNL1       -0.4499
     20 C          63.2903   92.4606    1.8880 C.3     1  UNL1        0.4510
     21 F          64.7532   92.3633    1.5713 F       1  UNL1       -0.1632
     22 F          63.0994   93.3849    0.7221 F       1  UNL1       -0.1632
     23 F          63.4812   91.5363    3.0539 F       1  UNL1       -0.1632
     24 S          62.8739   85.5464   12.5142 S.O2    1  UNL1        0.0460
     25 O          63.3886   86.8231   13.1100 O.2     1  UNL1       -0.1572
     26 O          62.3592   84.2697   11.9183 O.2     1  UNL1       -0.1572
     27 C          63.5430   84.7666   13.6069 C.3     1  UNL1        0.1958
     28 C          64.6534   83.5357   12.4748 C.3     1  UNL1        0.0310
     29 C          63.6153   83.2706   13.5247 C.3     1  UNL1        0.1509
     30 N          63.9046   81.8301   13.2229 N.am    1  UNL1       -0.2825
     31 C          63.0302   80.9874   14.1036 C.2     1  UNL1        0.3068
     32 O          62.9922   79.4882   14.1331 O.2     1  UNL1       -0.2524
     33 N          62.2006   81.9072   14.9495 N.am    1  UNL1       -0.2383
     34 C          62.5622   83.3183   14.5918 C.2     1  UNL1        0.2469
     35 O          61.9739   84.5592   15.1951 O.2     1  UNL1       -0.2729
     36 H          64.5543   81.4962   12.5629 H       1  UNL1        0.1514
     37 H          61.5355   81.6329   15.6216 H       1  UNL1        0.1591
@<TRIPOS>BOND
     1    29    28    1
     2    29    27    1
     3    27    24    1
     4    24    25    2
     5    24    26    2
     6    24     1    1
     7     1     2    1
     8     2     3    1
     9     3     4    1
    10     4     7    1
    11     7     8   ar
    12     8     9   ar
    13     9    10   ar
    14    10    13    1
    15    13    14    1
    16    14    15    1
    17    15    16   ar
    18    16    17   ar
    19    17    18   ar
    20    18    20    1
    21    20    21    1
    22    20    22    1
    23    20    23    1
    24    18    19   ar
    25    10    11   ar
    26    11    12   ar
    27     4     5    1
    28     5     6    1
    29    29    30    1
    30    30    31   am
    31    31    32    2
    32    31    33   am
    33    33    34   am
    34    34    35    2
    35    34    29    1
    36     6     1    1
    37    12     7   ar
    38    19    15   ar
    39    30    36    1
    40    33    37    1
