@<TRIPOS>MOLECULE
*****
 33 36 0 0 0
SMALL
GASTEIGER

@<TRIPOS>ATOM
      1 C          64.9242   91.9222   12.7574 C.ar    1  UNL1       -0.0045
      2 C          64.8412   90.7976   13.7465 C.ar    1  UNL1       -0.0026
      3 C          64.0087   89.5884   13.4390 C.ar    1  UNL1        0.0029
      4 C          63.2591   89.5037   12.1425 C.ar    1  UNL1        0.0391
      5 C          63.3421   90.6283   11.1534 C.ar    1  UNL1        0.0029
      6 C          64.1746   91.8376   11.4608 C.ar    1  UNL1       -0.0026
      7 C          62.4266   88.2944   11.8351 C.ar    1  UNL1        0.2033
      8 N          60.9302   88.2557   11.7376 N.ar    1  UNL1       -0.0560
      9 O          60.5230   86.8489   11.4135 O.2     1  UNL1       -0.3370
     10 C          61.7678   86.0181   11.3106 C.ar    1  UNL1        0.2366
     11 N          62.9442   86.9115   11.5712 N.ar    1  UNL1       -0.1907
     12 C          61.8258   84.5514   11.0015 C.3     1  UNL1        0.0880
     13 C          62.9519   83.7165   11.5352 C.3     1  UNL1        0.0098
     14 C          62.6577   82.4437   12.2724 C.3     1  UNL1        0.0005
     15 C          62.0567   82.4942   13.6458 C.3     1  UNL1        0.0000
     16 C          61.7626   81.2214   14.3830 C.3     1  UNL1        0.0000
     17 C          62.0695   79.8982   13.7468 C.3     1  UNL1        0.0000
     18 C          62.6705   79.8477   12.3734 C.3     1  UNL1        0.0000
     19 C          62.9646   81.1205   11.6362 C.3     1  UNL1        0.0000
     20 C          66.4003   93.2763   14.4119 C.3     1  UNL1        0.0262
     21 C          65.7567   93.1316   13.0648 C.3     1  UNL1        0.0942
     22 N          65.9456   94.1961   12.0250 N.am    1  UNL1       -0.3010
     23 C          66.7944   93.9240   10.8186 C.2     1  UNL1        0.2394
     24 O          67.4544   92.5873   10.6519 O.2     1  UNL1       -0.2736
     25 H          65.5124   95.0734   12.1344 H       1  UNL1        0.1497
     26 C          66.9833   94.9885    9.7789 C.3     1  UNL1        0.1586
     27 N          68.2378   95.2454    8.9978 N.3     1  UNL1       -0.2893
     28 C          67.9807   96.3988    8.0738 C.3     1  UNL1        0.0715
     29 C          66.5671   96.8546    8.2838 C.3     1  UNL1        0.0482
     30 C          65.9507   95.9831    9.3376 C.3     1  UNL1        0.1350
     31 O          64.5480   96.0877    9.8585 O.3     1  UNL1       -0.3825
     32 H          68.4845   94.4167    8.4567 H       1  UNL1        0.1237
     33 H          64.0888   96.8134    9.4075 H       1  UNL1        0.2104
@<TRIPOS>BOND
     1    21    20    1
     2    21    22    1
     3    22    23   am
     4    23    24    2
     5    26    23    1
     6    26    27    1
     7    27    28    1
     8    28    29    1
     9    29    30    1
    10    30    31    1
    11    21     1    1
    12     1     2   ar
    13     2     3   ar
    14     3     4   ar
    15     4     7    1
    16     7     8   ar
    17     8     9   ar
    18     9    10   ar
    19    10    12    1
    20    12    13    1
    21    13    14    1
    22    14    15    1
    23    15    16    1
    24    16    17    1
    25    17    18    1
    26    18    19    1
    27    10    11   ar
    28     4     5   ar
    29     5     6   ar
    30    30    26    1
    31     6     1   ar
    32    11     7   ar
    33    19    14    1
    34    22    25    1
    35    27    32    1
    36    31    33    1
@<TRIPOS>MOLECULE
*****
 33 36 0 0 0
SMALL
GASTEIGER

@<TRIPOS>ATOM
      1 C          65.0638   91.1866   15.1006 C.ar    1  UNL1       -0.0045
      2 C          64.1287   91.0817   16.2687 C.ar    1  UNL1       -0.0026
      3 C          63.4468   89.7798   16.5690 C.ar    1  UNL1        0.0029
      4 C          63.7000   88.5829   15.7011 C.ar    1  UNL1        0.0391
      5 C          64.6351   88.6878   14.5329 C.ar    1  UNL1        0.0029
      6 C          65.3170   89.9897   14.2327 C.ar    1  UNL1       -0.0026
      7 C          63.0181   87.2810   16.0013 C.ar    1  UNL1        0.2033
      8 N          61.9617   87.0587   17.0429 N.ar    1  UNL1       -0.0560
      9 O          61.5635   85.6132   16.9981 O.2     1  UNL1       -0.3370
     10 C          62.3738   84.9422   15.9289 C.ar    1  UNL1        0.2366
     11 N          63.2728   85.9729   15.3129 N.ar    1  UNL1       -0.1907
     12 C          62.2984   83.4945   15.5434 C.3     1  UNL1        0.0880
     13 C          63.4964   82.8124   14.9522 C.3     1  UNL1        0.0098
     14 C          63.5656   82.5656   13.4742 C.3     1  UNL1        0.0005
     15 C          64.3806   83.4718   12.5999 C.3     1  UNL1        0.0000
     16 C          64.4499   83.2251   11.1220 C.3     1  UNL1        0.0000
     17 C          63.7040   82.0721   10.5184 C.3     1  UNL1        0.0000
     18 C          62.8890   81.1659   11.3927 C.3     1  UNL1        0.0000
     19 C          62.8198   81.4127   12.8707 C.3     1  UNL1        0.0000
     20 C          66.2912   93.3251   15.9195 C.3     1  UNL1        0.0262
     21 C          65.7457   92.4885   14.8003 C.3     1  UNL1        0.0942
     22 N          65.8822   92.9537   13.3808 N.am    1  UNL1       -0.3010
     23 C          67.1337   92.6539   12.6103 C.2     1  UNL1        0.2394
     24 O          68.2488   91.8887   13.2592 O.2     1  UNL1       -0.2736
     25 H          65.1503   93.4559   12.9549 H       1  UNL1        0.1497
     26 C          67.2701   93.1191   11.1908 C.3     1  UNL1        0.1586
     27 N          68.1730   92.5245   10.1510 N.3     1  UNL1       -0.2893
     28 C          67.9885   93.2986    8.8794 C.3     1  UNL1        0.0715
     29 C          66.9716   94.3716    9.1334 C.3     1  UNL1        0.0482
     30 C          66.5276   94.2607   10.5619 C.3     1  UNL1        0.1350
     31 O          65.5183   95.1374   11.2420 O.3     1  UNL1       -0.3825
     32 H          67.9286   91.5460    9.9991 H       1  UNL1        0.1237
     33 H          65.1882   95.7983   10.6134 H       1  UNL1        0.2104
@<TRIPOS>BOND
     1    21    20    1
     2    21    22    1
     3    22    23   am
     4    23    24    2
     5    26    23    1
     6    26    27    1
     7    27    28    1
     8    28    29    1
     9    29    30    1
    10    30    31    1
    11    21     1    1
    12     1     2   ar
    13     2     3   ar
    14     3     4   ar
    15     4     7    1
    16     7     8   ar
    17     8     9   ar
    18     9    10   ar
    19    10    12    1
    20    12    13    1
    21    13    14    1
    22    14    15    1
    23    15    16    1
    24    16    17    1
    25    17    18    1
    26    18    19    1
    27    10    11   ar
    28     4     5   ar
    29     5     6   ar
    30    30    26    1
    31     6     1   ar
    32    11     7   ar
    33    19    14    1
    34    22    25    1
    35    27    32    1
    36    31    33    1
@<TRIPOS>MOLECULE
*****
 33 36 0 0 0
SMALL
GASTEIGER

@<TRIPOS>ATOM
      1 C          65.5118   91.9197   13.5748 C.ar    1  UNL1       -0.0045
      2 C          64.4895   91.5744   12.5329 C.ar    1  UNL1       -0.0026
      3 C          63.8887   90.2005   12.4980 C.ar    1  UNL1        0.0029
      4 C          64.3103   89.1718   13.5051 C.ar    1  UNL1        0.0391
      5 C          65.3326   89.5171   14.5470 C.ar    1  UNL1        0.0029
      6 C          65.9333   90.8910   14.5818 C.ar    1  UNL1       -0.0026
      7 C          63.7094   87.7978   13.4702 C.ar    1  UNL1        0.2033
      8 N          62.8462   87.2405   12.3773 N.ar    1  UNL1       -0.0560
      9 O          62.4696   85.8382   12.7536 O.2     1  UNL1       -0.3370
     10 C          63.1001   85.5288   14.0791 C.ar    1  UNL1        0.2366
     11 N          63.8664   86.7399   14.5219 N.ar    1  UNL1       -0.1907
     12 C          62.9847   84.2353   14.8299 C.3     1  UNL1        0.0880
     13 C          63.8389   83.0647   14.4430 C.3     1  UNL1        0.0098
     14 C          63.7077   82.4595   13.0767 C.3     1  UNL1        0.0005
     15 C          62.9469   81.1799   12.8932 C.3     1  UNL1        0.0000
     16 C          62.8157   80.5748   11.5270 C.3     1  UNL1        0.0000
     17 C          63.4453   81.2492   10.3443 C.3     1  UNL1        0.0000
     18 C          64.2061   82.5288   10.5279 C.3     1  UNL1        0.0000
     19 C          64.3373   83.1339   11.8942 C.3     1  UNL1        0.0000
     20 C          66.9325   93.7240   14.7898 C.3     1  UNL1        0.0262
     21 C          66.1126   93.2937   13.6097 C.3     1  UNL1        0.0942
     22 N          65.8935   94.2374   12.4645 N.am    1  UNL1       -0.3010
     23 C          66.5843   94.0002   11.1544 C.2     1  UNL1        0.2394
     24 O          67.4944   92.8192   10.9895 O.2     1  UNL1       -0.2736
     25 H          65.2962   95.0125   12.5728 H       1  UNL1        0.1497
     26 C          66.3652   94.9438   10.0093 C.3     1  UNL1        0.1586
     27 N          66.8570   94.7551    8.6048 N.3     1  UNL1       -0.2893
     28 C          66.4115   95.9366    7.7950 C.3     1  UNL1        0.0715
     29 C          65.6444   96.8555    8.6990 C.3     1  UNL1        0.0482
     30 C          65.6158   96.2419   10.0675 C.3     1  UNL1        0.1350
     31 O          64.9540   96.8243   11.2811 O.3     1  UNL1       -0.3825
     32 H          66.4647   93.8991    8.2128 H       1  UNL1        0.1237
     33 H          64.5398   97.6701   11.0489 H       1  UNL1        0.2104
@<TRIPOS>BOND
     1    21    20    1
     2    21    22    1
     3    22    23   am
     4    23    24    2
     5    26    23    1
     6    26    27    1
     7    27    28    1
     8    28    29    1
     9    29    30    1
    10    30    31    1
    11    21     1    1
    12     1     2   ar
    13     2     3   ar
    14     3     4   ar
    15     4     7    1
    16     7     8   ar
    17     8     9   ar
    18     9    10   ar
    19    10    12    1
    20    12    13    1
    21    13    14    1
    22    14    15    1
    23    15    16    1
    24    16    17    1
    25    17    18    1
    26    18    19    1
    27    10    11   ar
    28     4     5   ar
    29     5     6   ar
    30    30    26    1
    31     6     1   ar
    32    11     7   ar
    33    19    14    1
    34    22    25    1
    35    27    32    1
    36    31    33    1
@<TRIPOS>MOLECULE
*****
 33 36 0 0 0
SMALL
GASTEIGER

@<TRIPOS>ATOM
      1 C          62.8750   86.9496   11.9647 C.ar    1  UNL1       -0.0045
      2 C          63.5789   86.6490   13.2547 C.ar    1  UNL1       -0.0026
      3 C          64.0406   87.7713   14.1363 C.ar    1  UNL1        0.0029
      4 C          63.7983   89.1941   13.7280 C.ar    1  UNL1        0.0391
      5 C          63.0943   89.4947   12.4381 C.ar    1  UNL1        0.0029
      6 C          62.6326   88.3724   11.5564 C.ar    1  UNL1       -0.0026
      7 C          64.2599   90.3164   14.6097 C.ar    1  UNL1        0.2033
      8 N          63.4222   91.0496   15.6151 N.ar    1  UNL1       -0.0560
      9 O          64.2849   92.0889   16.2676 O.2     1  UNL1       -0.3370
     10 C          65.6558   91.9980   15.6655 C.ar    1  UNL1        0.2366
     11 N          65.6403   90.9025   14.6409 N.ar    1  UNL1       -0.1907
     12 C          66.8350   92.8525   16.0249 C.3     1  UNL1        0.0880
     13 C          67.8533   93.2029   14.9808 C.3     1  UNL1        0.0098
     14 C          67.5265   93.0311   13.5269 C.3     1  UNL1        0.0005
     15 C          68.2706   92.0205   12.7053 C.3     1  UNL1        0.0000
     16 C          67.9439   91.8487   11.2515 C.3     1  UNL1        0.0000
     17 C          66.8730   92.6874   10.6193 C.3     1  UNL1        0.0000
     18 C          66.1288   93.6979   11.4409 C.3     1  UNL1        0.0000
     19 C          66.4556   93.8698   12.8948 C.3     1  UNL1        0.0000
     20 C          62.2579   86.0480    9.6075 C.3     1  UNL1        0.0262
     21 C          62.4133   85.8273   11.0830 C.3     1  UNL1        0.0942
     22 N          62.1070   84.4843   11.6769 N.am    1  UNL1       -0.3010
     23 C          63.1336   83.3917   11.6299 C.2     1  UNL1        0.2394
     24 O          64.4666   83.6420   10.9890 O.2     1  UNL1       -0.2736
     25 H          61.2322   84.3200   12.0975 H       1  UNL1        0.1497
     26 C          62.8274   82.0488   12.2237 C.3     1  UNL1        0.1586
     27 N          62.9622   80.7261   11.5292 N.3     1  UNL1       -0.2893
     28 C          62.5506   79.6525   12.4926 C.3     1  UNL1        0.0715
     29 C          62.1615   80.3117   13.7826 C.3     1  UNL1        0.0482
     30 C          62.3325   81.7926   13.6164 C.3     1  UNL1        0.1350
     31 O          62.0570   82.8345   14.6598 O.3     1  UNL1       -0.3825
     32 H          63.9308   80.5822   11.2437 H       1  UNL1        0.1237
     33 H          61.7467   82.4046   15.4720 H       1  UNL1        0.2104
@<TRIPOS>BOND
     1    21    20    1
     2    21    22    1
     3    22    23   am
     4    23    24    2
     5    26    23    1
     6    26    27    1
     7    27    28    1
     8    28    29    1
     9    29    30    1
    10    30    31    1
    11    21     1    1
    12     1     2   ar
    13     2     3   ar
    14     3     4   ar
    15     4     7    1
    16     7     8   ar
    17     8     9   ar
    18     9    10   ar
    19    10    12    1
    20    12    13    1
    21    13    14    1
    22    14    15    1
    23    15    16    1
    24    16    17    1
    25    17    18    1
    26    18    19    1
    27    10    11   ar
    28     4     5   ar
    29     5     6   ar
    30    30    26    1
    31     6     1   ar
    32    11     7   ar
    33    19    14    1
    34    22    25    1
    35    27    32    1
    36    31    33    1
@<TRIPOS>MOLECULE
*****
 33 36 0 0 0
SMALL
GASTEIGER

@<TRIPOS>ATOM
      1 C          63.9391   89.5247   15.4478 C.ar    1  UNL1       -0.0045
      2 C          63.3420   88.7801   16.6049 C.ar    1  UNL1       -0.0026
      3 C          63.2151   87.2865   16.5504 C.ar    1  UNL1        0.0029
      4 C          63.6852   86.5376   15.3388 C.ar    1  UNL1        0.0391
      5 C          64.2823   87.2822   14.1816 C.ar    1  UNL1        0.0029
      6 C          64.4092   88.7758   14.2362 C.ar    1  UNL1       -0.0026
      7 C          63.5581   85.0439   15.2843 C.ar    1  UNL1        0.2033
      8 N          64.5845   84.0542   15.7502 N.ar    1  UNL1       -0.0560
      9 O          64.0432   82.6764   15.5082 O.2     1  UNL1       -0.3370
     10 C          62.6822   82.8146   14.8927 C.ar    1  UNL1        0.2366
     11 N          62.3825   84.2778   14.7543 N.ar    1  UNL1       -0.1907
     12 C          61.7796   81.6874   14.4869 C.3     1  UNL1        0.0880
     13 C          61.6690   81.2979   13.0426 C.3     1  UNL1        0.0098
     14 C          62.4528   82.0426   12.0028 C.3     1  UNL1        0.0005
     15 C          62.3113   83.5308   11.8801 C.3     1  UNL1        0.0000
     16 C          63.0950   84.2754   10.8403 C.3     1  UNL1        0.0000
     17 C          64.0203   83.5319    9.9233 C.3     1  UNL1        0.0000
     18 C          64.1618   82.0436   10.0461 C.3     1  UNL1        0.0000
     19 C          63.3780   81.2990   11.0859 C.3     1  UNL1        0.0000
     20 C          63.9956   91.7295   16.8211 C.3     1  UNL1        0.0262
     21 C          64.0662   91.0184   15.5023 C.3     1  UNL1        0.0942
     22 N          64.2638   91.8009   14.2379 N.am    1  UNL1       -0.3010
     23 C          65.6501   92.1222   13.7637 C.2     1  UNL1        0.2394
     24 O          66.8388   91.6610   14.5539 O.2     1  UNL1       -0.2736
     25 H          63.4836   92.1036   13.7193 H       1  UNL1        0.1497
     26 C          65.8477   92.9047   12.4993 C.3     1  UNL1        0.1586
     27 N          66.7465   94.0935   12.3295 N.3     1  UNL1       -0.2893
     28 C          66.6356   94.5593   10.9080 C.3     1  UNL1        0.0715
     29 C          65.6682   93.6584   10.1992 C.3     1  UNL1        0.0482
     30 C          65.1813   92.6357   11.1827 C.3     1  UNL1        0.1350
     31 O          64.2002   91.5371   10.8993 O.3     1  UNL1       -0.3825
     32 H          67.7107   93.8304   12.5333 H       1  UNL1        0.1237
     33 H          63.9211   91.5842    9.9715 H       1  UNL1        0.2104
@<TRIPOS>BOND
     1    21    20    1
     2    21    22    1
     3    22    23   am
     4    23    24    2
     5    26    23    1
     6    26    27    1
     7    27    28    1
     8    28    29    1
     9    29    30    1
    10    30    31    1
    11    21     1    1
    12     1     2   ar
    13     2     3   ar
    14     3     4   ar
    15     4     7    1
    16     7     8   ar
    17     8     9   ar
    18     9    10   ar
    19    10    12    1
    20    12    13    1
    21    13    14    1
    22    14    15    1
    23    15    16    1
    24    16    17    1
    25    17    18    1
    26    18    19    1
    27    10    11   ar
    28     4     5   ar
    29     5     6   ar
    30    30    26    1
    31     6     1   ar
    32    11     7   ar
    33    19    14    1
    34    22    25    1
    35    27    32    1
    36    31    33    1
@<TRIPOS>MOLECULE
*****
 33 36 0 0 0
SMALL
GASTEIGER

@<TRIPOS>ATOM
      1 C          63.5513   87.4171   16.0079 C.ar    1  UNL1       -0.0045
      2 C          63.2209   88.7851   16.5267 C.ar    1  UNL1       -0.0026
      3 C          63.5826   89.9993   15.7237 C.ar    1  UNL1        0.0029
      4 C          64.2747   89.8454   14.4019 C.ar    1  UNL1        0.0391
      5 C          64.6051   88.4774   13.8830 C.ar    1  UNL1        0.0029
      6 C          64.2433   87.2632   14.6860 C.ar    1  UNL1       -0.0026
      7 C          64.6364   91.0597   13.5988 C.ar    1  UNL1        0.2033
      8 N          64.0683   91.4340   12.2620 N.ar    1  UNL1       -0.0560
      9 O          64.7105   92.7184   11.8286 O.2     1  UNL1       -0.3370
     10 C          65.6755   93.1379   12.8976 C.ar    1  UNL1        0.2366
     11 N          65.6297   92.1128   13.9917 N.ar    1  UNL1       -0.1907
     12 C          66.5354   94.3669   12.8763 C.3     1  UNL1        0.0880
     13 C          66.1375   95.5461   12.0391 C.3     1  UNL1        0.0098
     14 C          66.4266   95.5527   10.5672 C.3     1  UNL1        0.0005
     15 C          67.2460   94.4533    9.9589 C.3     1  UNL1        0.0000
     16 C          67.5351   94.4598    8.4871 C.3     1  UNL1        0.0000
     17 C          67.0048   95.5657    7.6235 C.3     1  UNL1        0.0000
     18 C          66.1855   96.6651    8.2318 C.3     1  UNL1        0.0000
     19 C          65.8964   96.6586    9.7037 C.3     1  UNL1        0.0000
     20 C          62.5984   86.3583   18.1807 C.3     1  UNL1        0.0262
     21 C          63.1895   86.2028   16.8109 C.3     1  UNL1        0.0942
     22 N          63.4189   84.8331   16.2441 N.am    1  UNL1       -0.3010
     23 C          62.4586   84.2660   15.2411 C.2     1  UNL1        0.2394
     24 O          61.2687   85.0686   14.8049 O.2     1  UNL1       -0.2736
     25 H          64.1998   84.3063   16.5303 H       1  UNL1        0.1497
     26 C          62.6880   82.8963   14.6742 C.3     1  UNL1        0.1586
     27 N          61.8601   81.6769   14.9526 N.3     1  UNL1       -0.2893
     28 C          62.4460   80.5325   14.1799 C.3     1  UNL1        0.0715
     29 C          63.6360   81.0446   13.4239 C.3     1  UNL1        0.0482
     30 C          63.7855   82.5056   13.7294 C.3     1  UNL1        0.1350
     31 O          64.8464   83.4159   13.1855 O.3     1  UNL1       -0.3825
     32 H          60.8972   81.8373   14.6569 H       1  UNL1        0.1237
     33 H          65.4323   82.9144   12.5972 H       1  UNL1        0.2104
@<TRIPOS>BOND
     1    21    20    1
     2    21    22    1
     3    22    23   am
     4    23    24    2
     5    26    23    1
     6    26    27    1
     7    27    28    1
     8    28    29    1
     9    29    30    1
    10    30    31    1
    11    21     1    1
    12     1     2   ar
    13     2     3   ar
    14     3     4   ar
    15     4     7    1
    16     7     8   ar
    17     8     9   ar
    18     9    10   ar
    19    10    12    1
    20    12    13    1
    21    13    14    1
    22    14    15    1
    23    15    16    1
    24    16    17    1
    25    17    18    1
    26    18    19    1
    27    10    11   ar
    28     4     5   ar
    29     5     6   ar
    30    30    26    1
    31     6     1   ar
    32    11     7   ar
    33    19    14    1
    34    22    25    1
    35    27    32    1
    36    31    33    1
@<TRIPOS>MOLECULE
*****
 33 36 0 0 0
SMALL
GASTEIGER

@<TRIPOS>ATOM
      1 C          59.6547   92.1542    3.7070 C.ar    1  UNL1       -0.0045
      2 C          60.8881   91.4529    4.1936 C.ar    1  UNL1       -0.0026
      3 C          60.7959   90.4707    5.3235 C.ar    1  UNL1        0.0029
      4 C          59.4703   90.1898    5.9668 C.ar    1  UNL1        0.0391
      5 C          58.2369   90.8911    5.4802 C.ar    1  UNL1        0.0029
      6 C          58.3291   91.8733    4.3503 C.ar    1  UNL1       -0.0026
      7 C          59.3781   89.2076    7.0968 C.ar    1  UNL1        0.2033
      8 N          58.5990   87.9258    7.0894 N.ar    1  UNL1       -0.0560
      9 O          58.7882   87.2607    8.4205 O.2     1  UNL1       -0.3370
     10 C          59.6843   88.1314    9.2505 C.ar    1  UNL1        0.2366
     11 N          60.0489   89.3346    8.4324 N.ar    1  UNL1       -0.1907
     12 C          60.1365   87.8485   10.6525 C.3     1  UNL1        0.0880
     13 C          61.5912   87.6226   10.9402 C.3     1  UNL1        0.0098
     14 C          62.2463   86.3374   10.5289 C.3     1  UNL1        0.0005
     15 C          62.6320   86.1171    9.0962 C.3     1  UNL1        0.0000
     16 C          63.2870   84.8320    8.6850 C.3     1  UNL1        0.0000
     17 C          63.5564   83.7670    9.7064 C.3     1  UNL1        0.0000
     18 C          63.1706   83.9873   11.1391 C.3     1  UNL1        0.0000
     19 C          62.5155   85.2725   11.5504 C.3     1  UNL1        0.0000
     20 C          60.7631   94.2387    2.6224 C.3     1  UNL1        0.0262
     21 C          59.7468   93.1365    2.5770 C.3     1  UNL1        0.0942
     22 N          58.8226   93.0164    1.4017 N.am    1  UNL1       -0.3010
     23 C          59.3641   92.6250    0.0587 C.2     1  UNL1        0.2394
     24 O          60.8298   92.3536   -0.1089 O.2     1  UNL1       -0.2736
     25 H          57.8606   93.1945    1.5117 H       1  UNL1        0.1497
     26 C          58.4399   92.5049   -1.1166 C.3     1  UNL1        0.1586
     27 N          57.0190   92.0260   -1.0757 N.3     1  UNL1       -0.2893
     28 C          56.4753   92.0678   -2.4730 C.3     1  UNL1        0.0715
     29 C          57.5601   92.5725   -3.3776 C.3     1  UNL1        0.0482
     30 C          58.7743   92.8427   -2.5393 C.3     1  UNL1        0.1350
     31 O          60.0917   93.3598   -3.0365 O.3     1  UNL1       -0.3825
     32 H          56.4663   92.6335   -0.4709 H       1  UNL1        0.1237
     33 H          60.0441   93.4967   -3.9956 H       1  UNL1        0.2104
@<TRIPOS>BOND
     1    21    20    1
     2    21    22    1
     3    22    23   am
     4    23    24    2
     5    26    23    1
     6    26    27    1
     7    27    28    1
     8    28    29    1
     9    29    30    1
    10    30    31    1
    11    21     1    1
    12     1     2   ar
    13     2     3   ar
    14     3     4   ar
    15     4     7    1
    16     7     8   ar
    17     8     9   ar
    18     9    10   ar
    19    10    12    1
    20    12    13    1
    21    13    14    1
    22    14    15    1
    23    15    16    1
    24    16    17    1
    25    17    18    1
    26    18    19    1
    27    10    11   ar
    28     4     5   ar
    29     5     6   ar
    30    30    26    1
    31     6     1   ar
    32    11     7   ar
    33    19    14    1
    34    22    25    1
    35    27    32    1
    36    31    33    1
@<TRIPOS>MOLECULE
*****
 33 36 0 0 0
SMALL
GASTEIGER

@<TRIPOS>ATOM
      1 C          59.6961   92.1910    3.6677 C.ar    1  UNL1       -0.0045
      2 C          60.9360   91.4922    4.1414 C.ar    1  UNL1       -0.0026
      3 C          60.8595   90.5181    5.2794 C.ar    1  UNL1        0.0029
      4 C          59.5432   90.2427    5.9438 C.ar    1  UNL1        0.0391
      5 C          58.3033   90.9415    5.4702 C.ar    1  UNL1        0.0029
      6 C          58.3797   91.9156    4.3322 C.ar    1  UNL1       -0.0026
      7 C          59.4668   89.2685    7.0819 C.ar    1  UNL1        0.2033
      8 N          58.5638   88.0734    7.1603 N.ar    1  UNL1       -0.0560
      9 O          58.8189   87.3846    8.4682 O.2     1  UNL1       -0.3370
     10 C          59.8796   88.1542    9.1981 C.ar    1  UNL1        0.2366
     11 N          60.2800   89.3185    8.3413 N.ar    1  UNL1       -0.1907
     12 C          60.4412   87.8184   10.5479 C.3     1  UNL1        0.0880
     13 C          61.9266   87.7579   10.7483 C.3     1  UNL1        0.0098
     14 C          62.6629   88.9577   11.2665 C.3     1  UNL1        0.0005
     15 C          62.8328   90.1672   10.3959 C.3     1  UNL1        0.0000
     16 C          63.5690   91.3669   10.9141 C.3     1  UNL1        0.0000
     17 C          64.1354   91.3570   12.3030 C.3     1  UNL1        0.0000
     18 C          63.9655   90.1474   13.1737 C.3     1  UNL1        0.0000
     19 C          63.2292   88.9477   12.6554 C.3     1  UNL1        0.0000
     20 C          60.8013   94.2566    2.5444 C.3     1  UNL1        0.0262
     21 C          59.7725   93.1652    2.5296 C.3     1  UNL1        0.0942
     22 N          58.8200   93.0479    1.3768 N.am    1  UNL1       -0.3010
     23 C          59.3179   92.5981    0.0353 C.2     1  UNL1        0.2394
     24 O          60.7684   92.2656   -0.1535 O.2     1  UNL1       -0.2736
     25 H          57.8680   93.2661    1.5007 H       1  UNL1        0.1497
     26 C          58.3654   92.4808   -1.1175 C.3     1  UNL1        0.1586
     27 N          56.9481   91.9951   -1.0443 N.3     1  UNL1       -0.2893
     28 C          56.3697   92.0427   -2.4275 C.3     1  UNL1        0.0715
     29 C          57.4295   92.5579   -3.3556 C.3     1  UNL1        0.0482
     30 C          58.6629   92.8287   -2.5460 C.3     1  UNL1        0.1350
     31 O          59.9652   93.3550   -3.0724 O.3     1  UNL1       -0.3825
     32 H          56.4078   92.5963   -0.4223 H       1  UNL1        0.1237
     33 H          59.8933   93.4974   -4.0292 H       1  UNL1        0.2104
@<TRIPOS>BOND
     1    21    20    1
     2    21    22    1
     3    22    23   am
     4    23    24    2
     5    26    23    1
     6    26    27    1
     7    27    28    1
     8    28    29    1
     9    29    30    1
    10    30    31    1
    11    21     1    1
    12     1     2   ar
    13     2     3   ar
    14     3     4   ar
    15     4     7    1
    16     7     8   ar
    17     8     9   ar
    18     9    10   ar
    19    10    12    1
    20    12    13    1
    21    13    14    1
    22    14    15    1
    23    15    16    1
    24    16    17    1
    25    17    18    1
    26    18    19    1
    27    10    11   ar
    28     4     5   ar
    29     5     6   ar
    30    30    26    1
    31     6     1   ar
    32    11     7   ar
    33    19    14    1
    34    22    25    1
    35    27    32    1
    36    31    33    1
@<TRIPOS>MOLECULE
*****
 33 36 0 0 0
SMALL
GASTEIGER

@<TRIPOS>ATOM
      1 C          63.1464   93.7996    1.0132 C.ar    1  UNL1       -0.0045
      2 C          63.6003   92.6608    1.8775 C.ar    1  UNL1       -0.0026
      3 C          62.6488   92.0343    2.8532 C.ar    1  UNL1        0.0029
      4 C          61.2434   92.5465    2.9646 C.ar    1  UNL1        0.0391
      5 C          60.7895   93.6853    2.1003 C.ar    1  UNL1        0.0029
      6 C          61.7409   94.3119    1.1246 C.ar    1  UNL1       -0.0026
      7 C          60.2919   91.9199    3.9404 C.ar    1  UNL1        0.2033
      8 N          58.8613   92.3165    4.1555 N.ar    1  UNL1       -0.0560
      9 O          58.2892   91.4285    5.2204 O.2     1  UNL1       -0.3370
     10 C          59.3662   90.4830    5.6634 C.ar    1  UNL1        0.2366
     11 N          60.6039   90.7867    4.8723 N.ar    1  UNL1       -0.1907
     12 C          59.2294   89.4203    6.7132 C.3     1  UNL1        0.0880
     13 C          59.8096   89.6367    8.0794 C.3     1  UNL1        0.0098
     14 C          60.4927   88.5070    8.7917 C.3     1  UNL1        0.0005
     15 C          61.4255   88.7935    9.9309 C.3     1  UNL1        0.0000
     16 C          62.1086   87.6639   10.6431 C.3     1  UNL1        0.0000
     17 C          61.8590   86.2478   10.2161 C.3     1  UNL1        0.0000
     18 C          60.9262   85.9614    9.0769 C.3     1  UNL1        0.0000
     19 C          60.2430   87.0910    8.3647 C.3     1  UNL1        0.0000
     20 C          65.0004   95.5397    0.4796 C.3     1  UNL1        0.0262
     21 C          64.0979   94.4262    0.0374 C.3     1  UNL1        0.0942
     22 N          64.1467   93.9394   -1.3805 N.am    1  UNL1       -0.3010
     23 C          63.2828   94.5824   -2.4245 C.2     1  UNL1        0.2394
     24 O          62.3699   95.7124   -2.0506 O.2     1  UNL1       -0.2736
     25 H          64.7459   93.1977   -1.6259 H       1  UNL1        0.1497
     26 C          63.3316   94.0955   -3.8424 C.3     1  UNL1        0.1586
     27 N          62.6448   94.7284   -5.0162 N.3     1  UNL1       -0.2893
     28 C          62.9646   93.9143   -6.2348 C.3     1  UNL1        0.0715
     29 C          63.8491   92.7782   -5.8142 C.3     1  UNL1        0.0482
     30 C          64.0759   92.8902   -4.3356 C.3     1  UNL1        0.1350
     31 O          64.9020   91.9602   -3.4975 O.3     1  UNL1       -0.3825
     32 H          62.9807   95.6836   -5.1400 H       1  UNL1        0.1237
     33 H          65.2751   91.2633   -4.0598 H       1  UNL1        0.2104
@<TRIPOS>BOND
     1    21    20    1
     2    21    22    1
     3    22    23   am
     4    23    24    2
     5    26    23    1
     6    26    27    1
     7    27    28    1
     8    28    29    1
     9    29    30    1
    10    30    31    1
    11    21     1    1
    12     1     2   ar
    13     2     3   ar
    14     3     4   ar
    15     4     7    1
    16     7     8   ar
    17     8     9   ar
    18     9    10   ar
    19    10    12    1
    20    12    13    1
    21    13    14    1
    22    14    15    1
    23    15    16    1
    24    16    17    1
    25    17    18    1
    26    18    19    1
    27    10    11   ar
    28     4     5   ar
    29     5     6   ar
    30    30    26    1
    31     6     1   ar
    32    11     7   ar
    33    19    14    1
    34    22    25    1
    35    27    32    1
    36    31    33    1
