@<TRIPOS>MOLECULE
*****
 38 40 0 0 0
SMALL
GASTEIGER

@<TRIPOS>ATOM
      1 C          64.8365   91.2963   13.1236 C.ar    1  UNL1       -0.0185
      2 C          65.9181   92.2120   13.6149 C.ar    1  UNL1       -0.0041
      3 C          66.3260   93.3992   12.7938 C.ar    1  UNL1        0.0057
      4 C          65.6523   93.6706   11.4814 C.ar    1  UNL1        0.0696
      5 C          64.5707   92.7548   10.9901 C.ar    1  UNL1        0.0095
      6 C          64.1628   91.5677   11.8112 C.ar    1  UNL1        0.0677
      7 C          63.2047   86.5475   16.4079 C.2     1  UNL1        0.2490
      8 O          62.9150   86.7110   17.8705 O.2     1  UNL1       -0.2699
      9 N          63.6126   87.7346   15.5868 N.am    1  UNL1       -0.2761
     10 C          63.9023   87.5712   14.1241 C.3     1  UNL1        0.0940
     11 C          64.3102   88.7584   13.3031 C.3     1  UNL1        0.0259
     12 C          64.4285   90.1090   13.9447 C.3     1  UNL1        0.0257
     13 C          64.1389   90.2726   15.4073 C.3     1  UNL1        0.0259
     14 C          63.7309   89.0853   16.2284 C.3     1  UNL1        0.0940
     15 C          62.8498   82.4954   14.4831 C.ar    1  UNL1        0.1057
     16 C          64.1998   83.1230   14.6664 C.ar    1  UNL1        0.0185
     17 C          64.3181   84.4737   15.3080 C.ar    1  UNL1        0.0058
     18 C          63.0864   85.1968   15.7663 C.ar    1  UNL1        0.0537
     19 C          61.7364   84.5692   15.5829 C.ar    1  UNL1        0.0058
     20 C          61.6181   83.2185   14.9413 C.ar    1  UNL1        0.0185
     21 C          62.6132   79.7940   13.1998 C.3     1  UNL1        0.1816
     22 S          62.7315   81.1447   13.8414 S.O2    1  UNL1        0.0104
     23 O          61.2952   81.0683   14.2671 O.2     1  UNL1       -0.1686
     24 O          64.1678   81.2211   13.4158 O.2     1  UNL1       -0.1686
     25 C          66.0603   94.8578   10.6603 C.2     1  UNL1        0.3078
     26 O          66.3525   96.1679   11.3297 O.2     1  UNL1       -0.2516
     27 N          66.1760   94.7348    9.1699 N.am    1  UNL1       -0.1708
     28 H          65.9842   93.8749    8.7305 H       1  UNL1        0.2545
     29 C          66.5839   95.9220    8.3488 C.2     1  UNL1        0.3751
     30 N          65.7536   96.3411    7.1720 N.pl3   1  UNL1       -0.1313
     31 N          67.8223   96.6902    8.7046 N.pl3   1  UNL1       -0.2906
     32 H          64.9408   95.8370    6.9385 H       1  UNL1        0.3060
     33 H          68.3673   96.4151    9.4770 H       1  UNL1        0.2545
     34 H          68.0900   97.4694    8.1657 H       1  UNL1        0.2545
     35 C          63.0811   90.6518   11.3199 C.3     1  UNL1        0.4183
     36 F          61.9995   89.7361   10.8286 F       1  UNL1       -0.1659
     37 F          62.2417   91.0038   12.5121 F       1  UNL1       -0.1659
     38 F          63.9205   90.2999   10.1276 F       1  UNL1       -0.1659
@<TRIPOS>BOND
     1    21    22    1
     2    22    23    2
     3    22    24    2
     4    22    15    1
     5    15    16   ar
     6    16    17   ar
     7    17    18   ar
     8    18     7    1
     9     7     8    2
    10     7     9   am
    11     9    10    1
    12    10    11    1
    13    11    12    1
    14    12     1    1
    15     1     2   ar
    16     2     3   ar
    17     3     4   ar
    18     4    25    1
    19    25    26    2
    20    25    27   am
    21    27    29    1
    22    29    30    2
    23    29    31    1
    24     4     5   ar
    25     5     6   ar
    26     6    35    1
    27    35    36    1
    28    35    37    1
    29    35    38    1
    30    12    13    1
    31    13    14    1
    32    18    19   ar
    33    19    20   ar
    34    20    15   ar
    35    14     9    1
    36     6     1   ar
    37    27    28    1
    38    30    32    1
    39    31    33    1
    40    31    34    1
@<TRIPOS>MOLECULE
*****
 38 40 0 0 0
SMALL
GASTEIGER

@<TRIPOS>ATOM
      1 C          62.0725   93.0936    1.7866 C.ar    1  UNL1       -0.0185
      2 C          63.3877   93.7069    2.1660 C.ar    1  UNL1       -0.0041
      3 C          64.2332   94.3738    1.1218 C.ar    1  UNL1        0.0057
      4 C          63.7634   94.4274   -0.3017 C.ar    1  UNL1        0.0696
      5 C          62.4481   93.8142   -0.6811 C.ar    1  UNL1        0.0095
      6 C          61.6027   93.1472    0.3631 C.ar    1  UNL1        0.0677
      7 C          58.6906   90.4257    5.9634 C.2     1  UNL1        0.2490
      8 O          57.2232   90.7259    6.0444 O.2     1  UNL1       -0.2699
      9 N          59.5360   91.0927    4.9193 N.am    1  UNL1       -0.2761
     10 C          61.0035   90.7925    4.8382 C.3     1  UNL1        0.0940
     11 C          61.8489   91.4594    3.7941 C.3     1  UNL1        0.0259
     12 C          61.2270   92.4266    2.8309 C.3     1  UNL1        0.0257
     13 C          59.7596   92.7268    2.9119 C.3     1  UNL1        0.0259
     14 C          58.9141   92.0598    3.9561 C.3     1  UNL1        0.0940
     15 C          60.5565   87.5241    8.8530 C.ar    1  UNL1        0.1057
     16 C          60.7721   88.9984    9.0262 C.ar    1  UNL1        0.0185
     17 C          60.1501   89.9656    8.0630 C.ar    1  UNL1        0.0058
     18 C          59.3125   89.4585    6.9266 C.ar    1  UNL1        0.0537
     19 C          59.0969   87.9842    6.7535 C.ar    1  UNL1        0.0058
     20 C          59.7189   87.0171    7.7167 C.ar    1  UNL1        0.0185
     21 C          61.8004   85.5898   10.7794 C.3     1  UNL1        0.1816
     22 S          61.1784   86.5570    9.8162 S.O2    1  UNL1        0.0104
     23 O          61.8585   85.8588    8.6760 O.2     1  UNL1       -0.1686
     24 O          60.4984   87.2552   10.9564 O.2     1  UNL1       -0.1686
     25 C          64.6089   95.0944   -1.3460 C.2     1  UNL1        0.3078
     26 O          65.8288   95.8678   -0.9415 O.2     1  UNL1       -0.2516
     27 N          64.2344   94.9880   -2.7945 N.am    1  UNL1       -0.1708
     28 H          63.4337   94.4804   -3.0600 H       1  UNL1        0.2545
     29 C          65.0799   95.6550   -3.8387 C.2     1  UNL1        0.3751
     30 N          65.9053   96.8553   -3.4810 N.pl3   1  UNL1       -0.1313
     31 N          65.1001   95.1216   -5.2405 N.pl3   1  UNL1       -0.2906
     32 H          65.8921   97.2054   -2.5609 H       1  UNL1        0.3060
     33 H          64.5583   94.3338   -5.4753 H       1  UNL1        0.2545
     34 H          65.6550   95.5594   -5.9258 H       1  UNL1        0.2545
     35 C          60.2873   92.5339   -0.0162 C.3     1  UNL1        0.4183
     36 F          58.9721   91.9205   -0.3954 F       1  UNL1       -0.1659
     37 F          60.9156   91.1721    0.0073 F       1  UNL1       -0.1659
     38 F          59.6590   93.8957   -0.0396 F       1  UNL1       -0.1659
@<TRIPOS>BOND
     1    21    22    1
     2    22    23    2
     3    22    24    2
     4    22    15    1
     5    15    16   ar
     6    16    17   ar
     7    17    18   ar
     8    18     7    1
     9     7     8    2
    10     7     9   am
    11     9    10    1
    12    10    11    1
    13    11    12    1
    14    12     1    1
    15     1     2   ar
    16     2     3   ar
    17     3     4   ar
    18     4    25    1
    19    25    26    2
    20    25    27   am
    21    27    29    1
    22    29    30    2
    23    29    31    1
    24     4     5   ar
    25     5     6   ar
    26     6    35    1
    27    35    36    1
    28    35    37    1
    29    35    38    1
    30    12    13    1
    31    13    14    1
    32    18    19   ar
    33    19    20   ar
    34    20    15   ar
    35    14     9    1
    36     6     1   ar
    37    27    28    1
    38    30    32    1
    39    31    33    1
    40    31    34    1
@<TRIPOS>MOLECULE
*****
 38 40 0 0 0
SMALL
GASTEIGER

@<TRIPOS>ATOM
      1 C          64.5695   89.9252   13.6244 C.ar    1  UNL1       -0.0185
      2 C          65.7274   90.6130   14.2847 C.ar    1  UNL1       -0.0041
      3 C          66.1294   91.9907   13.8485 C.ar    1  UNL1        0.0057
      4 C          65.3734   92.6806   12.7519 C.ar    1  UNL1        0.0696
      5 C          64.2154   91.9929   12.0916 C.ar    1  UNL1        0.0095
      6 C          63.8135   90.6152   12.5278 C.ar    1  UNL1        0.0677
      7 C          62.9615   84.4142   15.3691 C.2     1  UNL1        0.2490
      8 O          62.6039   84.1559   16.8027 O.2     1  UNL1       -0.2699
      9 N          63.3635   85.7920   14.9329 N.am    1  UNL1       -0.2761
     10 C          63.7211   86.0503   13.4992 C.3     1  UNL1        0.0940
     11 C          64.1231   87.4280   13.0631 C.3     1  UNL1        0.0259
     12 C          64.1675   88.5474   14.0606 C.3     1  UNL1        0.0257
     13 C          63.8099   88.2891   15.4942 C.3     1  UNL1        0.0259
     14 C          63.4079   86.9114   15.9304 C.3     1  UNL1        0.0940
     15 C          62.8283   81.0561   12.3766 C.ar    1  UNL1        0.1057
     16 C          62.5846   80.7757   13.8299 C.ar    1  UNL1        0.0185
     17 C          62.6290   81.8951   14.8274 C.ar    1  UNL1        0.0058
     18 C          62.9171   83.2948   14.3716 C.ar    1  UNL1        0.0537
     19 C          63.1608   83.5752   12.9184 C.ar    1  UNL1        0.0058
     20 C          63.1164   82.4558   11.9209 C.ar    1  UNL1        0.0185
     21 C          62.7396   78.8173   10.3817 C.3     1  UNL1        0.1816
     22 S          62.7840   79.9367   11.3791 S.O2    1  UNL1        0.0104
     23 O          63.1866   80.8890   10.2925 O.2     1  UNL1       -0.1686
     24 O          62.3813   78.9843   12.4658 O.2     1  UNL1       -0.1686
     25 C          65.7754   94.0584   12.3157 C.2     1  UNL1        0.3078
     26 O          66.5273   94.9532   13.2559 O.2     1  UNL1       -0.2516
     27 N          65.4255   94.5413   10.9394 N.am    1  UNL1       -0.1708
     28 H          64.9320   93.9540   10.3223 H       1  UNL1        0.2545
     29 C          65.8275   95.9190   10.5032 C.2     1  UNL1        0.3751
     30 N          67.2554   96.3598   10.6326 N.pl3   1  UNL1       -0.1313
     31 N          64.8016   96.8559    9.9377 N.pl3   1  UNL1       -0.2906
     32 H          67.9287   95.7449   11.0037 H       1  UNL1        0.3060
     33 H          63.8644   96.5666    9.8528 H       1  UNL1        0.2545
     34 H          65.0655   97.7602    9.6514 H       1  UNL1        0.2545
     35 C          62.6555   89.9273   11.8675 C.3     1  UNL1        0.4183
     36 F          61.4975   89.2395   11.2072 F       1  UNL1       -0.1659
     37 F          61.8707   90.0249   13.1421 F       1  UNL1       -0.1659
     38 F          63.4402   89.8297   10.5929 F       1  UNL1       -0.1659
@<TRIPOS>BOND
     1    21    22    1
     2    22    23    2
     3    22    24    2
     4    22    15    1
     5    15    16   ar
     6    16    17   ar
     7    17    18   ar
     8    18     7    1
     9     7     8    2
    10     7     9   am
    11     9    10    1
    12    10    11    1
    13    11    12    1
    14    12     1    1
    15     1     2   ar
    16     2     3   ar
    17     3     4   ar
    18     4    25    1
    19    25    26    2
    20    25    27   am
    21    27    29    1
    22    29    30    2
    23    29    31    1
    24     4     5   ar
    25     5     6   ar
    26     6    35    1
    27    35    36    1
    28    35    37    1
    29    35    38    1
    30    12    13    1
    31    13    14    1
    32    18    19   ar
    33    19    20   ar
    34    20    15   ar
    35    14     9    1
    36     6     1   ar
    37    27    28    1
    38    30    32    1
    39    31    33    1
    40    31    34    1
