@<TRIPOS>MOLECULE
*****
 54 62 0 0 0
SMALL
GASTEIGER

@<TRIPOS>ATOM
      1 C          62.6197   95.6654   -3.7535 C.3     1  UNL1        0.1445
      2 C          63.9407   95.3070   -3.1398 C.3     1  UNL1        0.0322
      3 C          63.9862   94.5982   -1.8185 C.3     1  UNL1        0.0049
      4 C          65.3073   94.2399   -1.2049 C.3     1  UNL1        0.0002
      5 C          62.7108   94.2480   -1.1109 C.3     1  UNL1        0.0298
      6 C          61.3899   94.6064   -1.7246 C.3     1  UNL1        0.1418
      7 O          61.3443   95.3151   -3.0458 O.3     1  UNL1       -0.3537
      8 C          60.3064   94.1356   -0.8003 C.3     1  UNL1        0.1373
      9 O          58.8307   94.2875   -1.0219 O.3     1  UNL1       -0.3820
     10 C          60.9577   93.4863    0.3847 C.3     1  UNL1        0.0272
     11 C          59.4587   93.4910    0.4389 C.3     1  UNL1        0.0025
     12 C          60.3896   92.8407    1.6137 C.3     1  UNL1        0.0023
     13 C          58.9036   92.7713    1.8058 C.3     1  UNL1        0.0001
     14 C          58.3356   92.1258    3.0349 C.3     1  UNL1        0.0001
     15 C          59.2535   91.5497    4.0719 C.3     1  UNL1        0.0023
     16 C          58.6855   90.9041    5.3009 C.3     1  UNL1        0.0251
     17 C          57.6770   90.3976    6.2890 C.3     1  UNL1        0.0024
     18 C          57.4173   91.3043    4.6070 C.3     1  UNL1        0.0024
     19 C          59.6035   90.3280    6.3380 C.3     1  UNL1        0.1177
     20 C          61.0895   90.3974    6.1459 C.3     1  UNL1        0.0296
     21 C          61.6576   91.0430    4.9169 C.3     1  UNL1        0.0025
     22 C          60.7396   91.6191    3.8799 C.3     1  UNL1        0.0002
     23 C          62.2256   91.6885    3.6878 C.3     1  UNL1        0.0000
     24 C          61.3077   92.2646    2.6508 C.3     1  UNL1        0.0001
     25 C          62.7937   92.3341    2.4587 C.3     1  UNL1        0.0000
     26 C          63.3617   92.9796    1.2297 C.3     1  UNL1        0.0002
     27 C          62.4438   93.5557    0.1927 C.3     1  UNL1        0.0046
     28 C          63.9006   93.6985   -0.1351 C.3     1  UNL1        0.0002
     29 H          58.3497   93.8982   -0.2748 H       1  UNL1        0.2104
     30 C          62.5741   96.3741   -5.0747 C.3     1  UNL1        0.1664
     31 C          61.2588   96.6009   -5.7591 C.3     1  UNL1        0.1156
     32 C          61.9063   96.3459   -7.0879 C.3     1  UNL1        0.0319
     33 C          60.6113   96.8560   -4.4303 C.3     1  UNL1        0.0319
     34 O          59.9434   96.8278   -6.4436 O.3     1  UNL1       -0.3843
     35 H          60.0547   96.7212   -7.4012 H       1  UNL1        0.2103
     36 O          63.8439   96.8560   -5.7114 O.3     1  UNL1       -0.3514
     37 C          66.2077   95.8439   -6.0829 C.3     1  UNL1        0.0346
     38 C          64.7455   95.8853   -6.4149 C.3     1  UNL1        0.1423
     39 O          59.0354   89.6825    7.5670 O.3     1  UNL1       -0.3320
     40 C          59.9492   89.0328    8.5635 C.3     1  UNL1        0.2518
     41 C          60.1346   89.6437    9.9209 C.3     1  UNL1        0.1343
     42 N          61.0483   88.9941   10.9173 N.3     1  UNL1       -0.2663
     43 C          61.7767   87.7334   10.5564 C.3     1  UNL1        0.1048
     44 C          61.5914   87.1225    9.1991 C.3     1  UNL1        0.1621
     45 O          60.6776   87.7722    8.2026 O.3     1  UNL1       -0.3280
     46 C          61.2337   89.6050   12.2746 C.3     1  UNL1        0.0751
     47 C          62.5551   90.2057   12.6526 C.3     1  UNL1        0.0479
     48 C          63.5168   91.1516   11.9966 C.3     1  UNL1        0.0748
     49 N          64.4239   91.0552   13.1872 N.3     1  UNL1       -0.2738
     50 C          63.4623   90.1093   13.8434 C.3     1  UNL1        0.0748
     51 C          65.7454   91.6559   13.5652 C.3     1  UNL1        0.0575
     52 C          66.8762   91.2514   14.4638 C.3     1  UNL1        0.0160
     53 C          67.6142   92.5054   14.0998 C.3     1  UNL1        0.0028
     54 C          66.4834   92.9101   13.2012 C.3     1  UNL1        0.0160
@<TRIPOS>BOND
     1    37    38    1
     2    38    36    1
     3    30    36    1
     4    30     1    1
     5     1     2    1
     6     2     3    1
     7     3     4    1
     8     5     3    1
     9     5     6    1
    10     6     7    1
    11     6     8    1
    12     8     9    1
    13     8    10    1
    14    10    11    1
    15    10    12    1
    16    12    13    1
    17    13    14    1
    18    15    14    1
    19    15    16    1
    20    16    17    1
    21    16    18    1
    22    16    19    1
    23    19    39    1
    24    40    39    1
    25    40    41    1
    26    41    42    1
    27    42    46    1
    28    46    47    1
    29    47    48    1
    30    48    49    1
    31    49    51    1
    32    51    52    1
    33    52    53    1
    34    53    54    1
    35    49    50    1
    36    42    43    1
    37    43    44    1
    38    44    45    1
    39    19    20    1
    40    20    21    1
    41    22    21    1
    42    22    23    1
    43    24    23    1
    44    24    25    1
    45    25    26    1
    46    26    27    1
    47    27    28    1
    48    30    31    1
    49    31    32    1
    50    31    33    1
    51    31    34    1
    52     7     1    1
    53    27    10    1
    54    27     5    1
    55    24    12    1
    56    22    15    1
    57    45    40    1
    58    24    22    1
    59    50    47    1
    60    54    51    1
    61     9    29    1
    62    34    35    1
@<TRIPOS>MOLECULE
*****
 54 62 0 0 0
SMALL
GASTEIGER

@<TRIPOS>ATOM
      1 C          63.3608   95.0648   -4.5126 C.3     1  UNL1        0.1445
      2 C          61.8822   95.2819   -4.6419 C.3     1  UNL1        0.0322
      3 C          60.9649   94.8828   -3.5241 C.3     1  UNL1        0.0049
      4 C          59.4864   95.0999   -3.6535 C.3     1  UNL1        0.0002
      5 C          61.5263   94.2667   -2.2770 C.3     1  UNL1        0.0298
      6 C          63.0049   94.0497   -2.1476 C.3     1  UNL1        0.1418
      7 O          63.9221   94.4487   -3.2654 O.3     1  UNL1       -0.3537
      8 C          63.2664   93.4253   -0.8091 C.3     1  UNL1        0.1373
      9 O          64.6090   93.0377   -0.2641 O.3     1  UNL1       -0.3820
     10 C          61.9494   93.2564   -0.1112 C.3     1  UNL1        0.0272
     11 C          63.1271   92.7754    0.6836 C.3     1  UNL1        0.0025
     12 C          61.5905   92.6962    1.2332 C.3     1  UNL1        0.0023
     13 C          62.6659   92.1761    2.1404 C.3     1  UNL1        0.0001
     14 C          62.3070   91.6160    3.4848 C.3     1  UNL1        0.0001
     15 C          60.8727   91.5759    3.9220 C.3     1  UNL1        0.0023
     16 C          60.5138   91.0157    5.2664 C.3     1  UNL1        0.0251
     17 C          60.6721   90.3946    6.6225 C.3     1  UNL1        0.0024
     18 C          62.0031   90.8401    5.3002 C.3     1  UNL1        0.0024
     19 C          59.0794   90.9756    5.7036 C.3     1  UNL1        0.1177
     20 C          58.0041   91.4957    4.7964 C.3     1  UNL1        0.0296
     21 C          58.3630   92.0558    3.4520 C.3     1  UNL1        0.0025
     22 C          59.7972   92.0959    3.0148 C.3     1  UNL1        0.0002
     23 C          58.7219   92.6160    2.1076 C.3     1  UNL1        0.0000
     24 C          60.1561   92.6561    1.6704 C.3     1  UNL1        0.0001
     25 C          59.0808   93.1762    0.7632 C.3     1  UNL1        0.0000
     26 C          59.4397   93.7363   -0.5812 C.3     1  UNL1        0.0002
     27 C          60.8739   93.7764   -1.0184 C.3     1  UNL1        0.0046
     28 C          59.9127   94.3299   -2.0281 C.3     1  UNL1        0.0002
     29 H          64.5007   92.6553    0.6207 H       1  UNL1        0.2104
     30 C          64.2780   95.4638   -5.6304 C.3     1  UNL1        0.1664
     31 C          65.3886   94.5482   -6.0524 C.3     1  UNL1        0.1156
     32 C          66.3927   95.6095   -5.7125 C.3     1  UNL1        0.0319
     33 C          64.3845   93.4869   -6.3922 C.3     1  UNL1        0.0319
     34 O          66.4993   93.6325   -6.4743 O.3     1  UNL1       -0.3843
     35 H          67.3508   94.0822   -6.3581 H       1  UNL1        0.2103
     36 O          64.0845   96.7785   -6.3262 O.3     1  UNL1       -0.3514
     37 C          61.7574   96.6234   -7.4707 C.3     1  UNL1        0.0346
     38 C          63.2365   96.8559   -7.5610 C.3     1  UNL1        0.1423
     39 O          58.7205   90.4154    7.0480 O.3     1  UNL1       -0.3320
     40 C          59.2683   89.0868    7.4774 C.3     1  UNL1        0.2518
     41 C          60.2859   89.0150    8.5773 C.3     1  UNL1        0.1343
     42 N          60.8337   87.6864    9.0067 N.3     1  UNL1       -0.2663
     43 C          60.3640   86.4294    8.3364 C.3     1  UNL1        0.1048
     44 C          59.3466   86.5010    7.2366 C.3     1  UNL1        0.1621
     45 O          58.7987   87.8298    6.8071 O.3     1  UNL1       -0.3280
     46 C          61.8511   87.6147   10.1065 C.3     1  UNL1        0.0751
     47 C          62.1911   86.2928   10.7288 C.3     1  UNL1        0.0479
     48 C          62.8146   85.0193   10.2396 C.3     1  UNL1        0.0748
     49 N          62.6719   84.4235   11.6087 N.3     1  UNL1       -0.2738
     50 C          62.0484   85.6970   12.0980 C.3     1  UNL1        0.0748
     51 C          63.0119   83.1017   12.2310 C.3     1  UNL1        0.0575
     52 C          64.0478   82.6226   13.2042 C.3     1  UNL1        0.0160
     53 C          63.4927   81.2324   13.1110 C.3     1  UNL1        0.0028
     54 C          62.4567   81.7113   12.1377 C.3     1  UNL1        0.0160
@<TRIPOS>BOND
     1    37    38    1
     2    38    36    1
     3    30    36    1
     4    30     1    1
     5     1     2    1
     6     2     3    1
     7     3     4    1
     8     5     3    1
     9     5     6    1
    10     6     7    1
    11     6     8    1
    12     8     9    1
    13     8    10    1
    14    10    11    1
    15    10    12    1
    16    12    13    1
    17    13    14    1
    18    15    14    1
    19    15    16    1
    20    16    17    1
    21    16    18    1
    22    16    19    1
    23    19    39    1
    24    40    39    1
    25    40    41    1
    26    41    42    1
    27    42    46    1
    28    46    47    1
    29    47    48    1
    30    48    49    1
    31    49    51    1
    32    51    52    1
    33    52    53    1
    34    53    54    1
    35    49    50    1
    36    42    43    1
    37    43    44    1
    38    44    45    1
    39    19    20    1
    40    20    21    1
    41    22    21    1
    42    22    23    1
    43    24    23    1
    44    24    25    1
    45    25    26    1
    46    26    27    1
    47    27    28    1
    48    30    31    1
    49    31    32    1
    50    31    33    1
    51    31    34    1
    52     7     1    1
    53    27    10    1
    54    27     5    1
    55    24    12    1
    56    22    15    1
    57    45    40    1
    58    24    22    1
    59    50    47    1
    60    54    51    1
    61     9    29    1
    62    34    35    1
