@<TRIPOS>MOLECULE
*****
 31 36 0 0 0
SMALL
GASTEIGER

@<TRIPOS>ATOM
      1 O          56.3226   91.5790    5.1919 O.2     1  UNL1       -0.2638
      2 C          57.7781   91.5643    4.8294 C.2     1  UNL1        0.3160
      3 N          58.2643   92.3477    3.6462 N.am    1  UNL1       -0.1720
      4 C          59.7198   92.3330    3.2837 C.ar    1  UNL1        0.0775
      5 C          60.2060   93.1163    2.1005 C.ar    1  UNL1        0.0167
      6 C          61.6614   93.1016    1.7381 C.ar    1  UNL1        0.0013
      7 C          62.6307   92.3036    2.5588 C.ar    1  UNL1        0.0002
      8 C          62.1445   91.5203    3.7420 C.ar    1  UNL1        0.0051
      9 C          60.6891   91.5350    4.1045 C.ar    1  UNL1        0.0623
     10 C          60.2029   90.7516    5.2877 C.2     1  UNL1        0.2419
     11 N          60.9179   89.8788    6.2761 N.2     1  UNL1       -0.0302
     12 C          59.9044   89.3541    7.2494 C.2     1  UNL1        0.3765
     13 N          58.5629   89.9026    6.8625 N.2     1  UNL1       -0.0256
     14 C          58.7474   90.7663    5.6502 C.2     1  UNL1        0.2907
     15 C          62.1476   93.8850    0.5548 C.ar    1  UNL1        0.0000
     16 C          61.2682   94.0481   -0.6494 C.ar    1  UNL1        0.0000
     17 C          61.7544   94.8314   -1.8326 C.ar    1  UNL1        0.0000
     18 C          63.1200   95.4516   -1.8116 C.ar    1  UNL1        0.0000
     19 C          63.6062   96.2349   -2.9949 C.ar    1  UNL1        0.0000
     20 C          64.9717   96.8552   -2.9739 C.ar    1  UNL1        0.0000
     21 C          65.8512   96.6921   -1.7697 C.ar    1  UNL1        0.0000
     22 C          65.3650   95.9088   -0.5865 C.ar    1  UNL1        0.0000
     23 C          63.9994   95.2886   -0.6075 C.ar    1  UNL1        0.0000
     24 C          63.5132   94.5052    0.5758 C.ar    1  UNL1        0.0000
     25 C          60.1833   88.4410    8.4064 C.ar    1  UNL1        0.0989
     26 C          60.4141   86.9781    8.1687 C.ar    1  UNL1        0.0085
     27 C          60.6930   86.0652    9.3257 C.ar    1  UNL1        0.0003
     28 C          60.7412   86.6152   10.7204 C.ar    1  UNL1        0.0009
     29 C          60.5105   88.0781   10.9581 C.ar    1  UNL1        0.0116
     30 C          60.2316   88.9910    9.8011 C.ar    1  UNL1        0.0651
     31 CL         60.0008   90.4541   10.0388 Cl      1  UNL1       -0.0820
@<TRIPOS>BOND
     1     1     2    2
     2     2     3    1
     3     3     4    2
     4     4     5   ar
     5     5     6   ar
     6     6    15    1
     7    15    16   ar
     8    16    17   ar
     9    17    18   ar
    10    18    19   ar
    11    19    20   ar
    12    20    21   ar
    13    21    22   ar
    14    22    23   ar
    15    23    24   ar
    16     6     7   ar
    17     7     8   ar
    18     8     9   ar
    19     9    10    2
    20    10    11    1
    21    11    12    2
    22    12    25    1
    23    25    26   ar
    24    26    27   ar
    25    27    28   ar
    26    28    29   ar
    27    29    30   ar
    28    30    31    1
    29    12    13    1
    30    13    14    2
    31    14     2    1
    32     9     4   ar
    33    14    10    1
    34    24    15   ar
    35    30    25   ar
    36    23    18   ar
@<TRIPOS>MOLECULE
*****
 31 36 0 0 0
SMALL
GASTEIGER

@<TRIPOS>ATOM
      1 O          66.3085   92.7267   15.9852 O.2     1  UNL1       -0.2638
      2 C          65.7090   91.8418   14.9327 C.2     1  UNL1        0.3160
      3 N          65.2617   90.4541   15.2852 N.am    1  UNL1       -0.1720
      4 C          64.6623   89.5692   14.2327 C.ar    1  UNL1        0.0775
      5 C          64.2150   88.1816   14.5852 C.ar    1  UNL1        0.0167
      6 C          63.6156   87.2968   13.5327 C.ar    1  UNL1        0.0013
      7 C          63.4635   87.7996   12.1277 C.ar    1  UNL1        0.0002
      8 C          63.9109   89.1872   11.7752 C.ar    1  UNL1        0.0051
      9 C          64.5102   90.0720   12.8277 C.ar    1  UNL1        0.0623
     10 C          64.9576   91.4597   12.4752 C.2     1  UNL1        0.2419
     11 N          64.9345   92.2243   11.1849 N.2     1  UNL1       -0.0302
     12 C          65.5196   93.5817   11.4399 C.2     1  UNL1        0.3765
     13 N          65.9043   93.6560   12.8878 N.2     1  UNL1       -0.0256
     14 C          65.5570   92.3446   13.5276 C.2     1  UNL1        0.2907
     15 C          63.1682   85.9090   13.8852 C.ar    1  UNL1        0.0000
     16 C          62.7575   85.5880   15.2917 C.ar    1  UNL1        0.0000
     17 C          62.3101   84.2004   15.6443 C.ar    1  UNL1        0.0000
     18 C          62.2735   83.1337   14.5903 C.ar    1  UNL1        0.0000
     19 C          61.8262   81.7461   14.9428 C.ar    1  UNL1        0.0000
     20 C          61.7896   80.6794   13.8888 C.ar    1  UNL1        0.0000
     21 C          62.2003   81.0004   12.4823 C.ar    1  UNL1        0.0000
     22 C          62.6477   82.3880   12.1298 C.ar    1  UNL1        0.0000
     23 C          62.6843   83.4547   13.1838 C.ar    1  UNL1        0.0000
     24 C          63.1316   84.8424   12.8313 C.ar    1  UNL1        0.0000
     25 C          65.6901   94.6732   10.4251 C.ar    1  UNL1        0.0989
     26 C          64.6666   95.7645   10.3184 C.ar    1  UNL1        0.0085
     27 C          64.8371   96.8559    9.3037 C.ar    1  UNL1        0.0003
     28 C          66.0311   96.8560    8.3957 C.ar    1  UNL1        0.0009
     29 C          67.0545   95.7647    8.5024 C.ar    1  UNL1        0.0116
     30 C          66.8840   94.6733    9.5172 C.ar    1  UNL1        0.0651
     31 CL         67.9075   93.5818    9.6239 Cl      1  UNL1       -0.0820
@<TRIPOS>BOND
     1     1     2    2
     2     2     3    1
     3     3     4    2
     4     4     5   ar
     5     5     6   ar
     6     6    15    1
     7    15    16   ar
     8    16    17   ar
     9    17    18   ar
    10    18    19   ar
    11    19    20   ar
    12    20    21   ar
    13    21    22   ar
    14    22    23   ar
    15    23    24   ar
    16     6     7   ar
    17     7     8   ar
    18     8     9   ar
    19     9    10    2
    20    10    11    1
    21    11    12    2
    22    12    25    1
    23    25    26   ar
    24    26    27   ar
    25    27    28   ar
    26    28    29   ar
    27    29    30   ar
    28    30    31    1
    29    12    13    1
    30    13    14    2
    31    14     2    1
    32     9     4   ar
    33    14    10    1
    34    24    15   ar
    35    30    25   ar
    36    23    18   ar
@<TRIPOS>MOLECULE
*****
 31 36 0 0 0
SMALL
GASTEIGER

@<TRIPOS>ATOM
      1 O          63.5239   88.6888   13.2077 O.2     1  UNL1       -0.2638
      2 C          62.7917   88.1559   12.0119 C.2     1  UNL1        0.3160
      3 N          62.3236   89.0944   10.9395 N.am    1  UNL1       -0.1720
      4 C          61.5914   88.5615    9.7436 C.ar    1  UNL1        0.0775
      5 C          61.1233   89.4999    8.6712 C.ar    1  UNL1        0.0167
      6 C          60.3911   88.9670    7.4755 C.ar    1  UNL1        0.0013
      7 C          60.1271   87.4956    7.3521 C.ar    1  UNL1        0.0002
      8 C          60.5952   86.5571    8.4245 C.ar    1  UNL1        0.0051
      9 C          61.3274   87.0900    9.6203 C.ar    1  UNL1        0.0623
     10 C          61.7956   86.1516   10.6927 C.2     1  UNL1        0.2419
     11 N          61.6813   84.6636   10.8443 N.2     1  UNL1       -0.0302
     12 C          62.3430   84.2770   12.1338 C.2     1  UNL1        0.3765
     13 N          62.8660   85.5259   12.7791 N.2     1  UNL1       -0.0256
     14 C          62.5277   86.6845   11.8885 C.2     1  UNL1        0.2907
     15 C          59.9230   89.9055    6.4030 C.ar    1  UNL1        0.0000
     16 C          58.4637   90.2276    6.2729 C.ar    1  UNL1        0.0000
     17 C          57.9955   91.1660    5.2005 C.ar    1  UNL1        0.0000
     18 C          58.9866   91.7824    4.2581 C.ar    1  UNL1        0.0000
     19 C          58.5184   92.7209    3.1858 C.ar    1  UNL1        0.0000
     20 C          59.5094   93.3372    2.2435 C.ar    1  UNL1        0.0000
     21 C          60.9687   93.0152    2.3736 C.ar    1  UNL1        0.0000
     22 C          61.4368   92.0767    3.4460 C.ar    1  UNL1        0.0000
     23 C          60.4458   91.4604    4.3883 C.ar    1  UNL1        0.0000
     24 C          60.9140   90.5219    5.4608 C.ar    1  UNL1        0.0000
     25 C          62.4608   82.8855   12.6817 C.ar    1  UNL1        0.0989
     26 C          61.9313   82.5707   14.0493 C.ar    1  UNL1        0.0085
     27 C          62.0491   81.1793   14.5972 C.ar    1  UNL1        0.0003
     28 C          62.6965   80.1028   13.7774 C.ar    1  UNL1        0.0009
     29 C          63.2260   80.4177   12.4098 C.ar    1  UNL1        0.0116
     30 C          63.1082   81.8090   11.8619 C.ar    1  UNL1        0.0651
     31 CL         63.6377   82.1239   10.4942 Cl      1  UNL1       -0.0820
@<TRIPOS>BOND
     1     1     2    2
     2     2     3    1
     3     3     4    2
     4     4     5   ar
     5     5     6   ar
     6     6    15    1
     7    15    16   ar
     8    16    17   ar
     9    17    18   ar
    10    18    19   ar
    11    19    20   ar
    12    20    21   ar
    13    21    22   ar
    14    22    23   ar
    15    23    24   ar
    16     6     7   ar
    17     7     8   ar
    18     8     9   ar
    19     9    10    2
    20    10    11    1
    21    11    12    2
    22    12    25    1
    23    25    26   ar
    24    26    27   ar
    25    27    28   ar
    26    28    29   ar
    27    29    30   ar
    28    30    31    1
    29    12    13    1
    30    13    14    2
    31    14     2    1
    32     9     4   ar
    33    14    10    1
    34    24    15   ar
    35    30    25   ar
    36    23    18   ar
@<TRIPOS>MOLECULE
*****
 31 36 0 0 0
SMALL
GASTEIGER

@<TRIPOS>ATOM
      1 O          61.1028   90.1308   11.0298 O.2     1  UNL1       -0.2638
      2 C          61.9857   89.1397   11.7287 C.2     1  UNL1        0.3160
      3 N          61.7186   87.6701   11.5920 N.am    1  UNL1       -0.1720
      4 C          62.6015   86.6791   12.2909 C.ar    1  UNL1        0.0775
      5 C          62.3344   85.2094   12.1542 C.ar    1  UNL1        0.0167
      6 C          63.2173   84.2185   12.8530 C.ar    1  UNL1        0.0013
      7 C          64.3674   84.6972   13.6886 C.ar    1  UNL1        0.0002
      8 C          64.6345   86.1669   13.8253 C.ar    1  UNL1        0.0051
      9 C          63.7516   87.1578   13.1264 C.ar    1  UNL1        0.0623
     10 C          64.0187   88.6275   13.2631 C.2     1  UNL1        0.2419
     11 N          65.0698   89.3911   14.0129 N.2     1  UNL1       -0.0302
     12 C          64.8364   90.8540   13.7774 C.2     1  UNL1        0.3765
     13 N          63.6412   90.9945   12.8821 N.2     1  UNL1       -0.0256
     14 C          63.1358   89.6185   12.5642 C.2     1  UNL1        0.2907
     15 C          62.9502   82.7488   12.7164 C.ar    1  UNL1        0.0000
     16 C          62.4631   81.9621   13.8970 C.ar    1  UNL1        0.0000
     17 C          62.1960   80.4924   13.7604 C.ar    1  UNL1        0.0000
     18 C          62.4159   79.8094   12.4431 C.ar    1  UNL1        0.0000
     19 C          62.1488   78.3397   12.3065 C.ar    1  UNL1        0.0000
     20 C          62.3687   77.6568   10.9893 C.ar    1  UNL1        0.0000
     21 C          62.8558   78.4435    9.8086 C.ar    1  UNL1        0.0000
     22 C          63.1229   79.9131    9.9452 C.ar    1  UNL1        0.0000
     23 C          62.9030   80.5961   11.2625 C.ar    1  UNL1        0.0000
     24 C          63.1701   82.0658   11.3991 C.ar    1  UNL1        0.0000
     25 C          65.6547   91.9790   14.3388 C.ar    1  UNL1        0.0989
     26 C          66.0723   91.9565   15.7792 C.ar    1  UNL1        0.0085
     27 C          66.8905   93.0814   16.3405 C.ar    1  UNL1        0.0003
     28 C          67.2912   94.2287   15.4613 C.ar    1  UNL1        0.0009
     29 C          66.8736   94.2512   14.0208 C.ar    1  UNL1        0.0116
     30 C          66.0553   93.1263   13.4595 C.ar    1  UNL1        0.0651
     31 CL         65.6377   93.1488   12.0190 Cl      1  UNL1       -0.0820
@<TRIPOS>BOND
     1     1     2    2
     2     2     3    1
     3     3     4    2
     4     4     5   ar
     5     5     6   ar
     6     6    15    1
     7    15    16   ar
     8    16    17   ar
     9    17    18   ar
    10    18    19   ar
    11    19    20   ar
    12    20    21   ar
    13    21    22   ar
    14    22    23   ar
    15    23    24   ar
    16     6     7   ar
    17     7     8   ar
    18     8     9   ar
    19     9    10    2
    20    10    11    1
    21    11    12    2
    22    12    25    1
    23    25    26   ar
    24    26    27   ar
    25    27    28   ar
    26    28    29   ar
    27    29    30   ar
    28    30    31    1
    29    12    13    1
    30    13    14    2
    31    14     2    1
    32     9     4   ar
    33    14    10    1
    34    24    15   ar
    35    30    25   ar
    36    23    18   ar
@<TRIPOS>MOLECULE
*****
 31 36 0 0 0
SMALL
GASTEIGER

@<TRIPOS>ATOM
      1 O          62.4291   86.3838   18.6410 O.2     1  UNL1       -0.2638
      2 C          62.8419   86.7370   17.2427 C.2     1  UNL1        0.3160
      3 N          63.3331   88.1198   16.9324 N.am    1  UNL1       -0.1720
      4 C          63.7459   88.4730   15.5342 C.ar    1  UNL1        0.0775
      5 C          64.2371   89.8558   15.2239 C.ar    1  UNL1        0.0167
      6 C          64.6498   90.2089   13.8257 C.ar    1  UNL1        0.0013
      7 C          64.5712   89.1792   12.7378 C.ar    1  UNL1        0.0002
      8 C          64.0799   87.7964   13.0481 C.ar    1  UNL1        0.0051
      9 C          63.6673   87.4433   14.4463 C.ar    1  UNL1        0.0623
     10 C          63.1759   86.0604   14.7567 C.2     1  UNL1        0.2419
     11 N          62.9906   84.8448   13.8977 N.2     1  UNL1       -0.0302
     12 C          62.4633   83.7404   14.7650 C.2     1  UNL1        0.3765
     13 N          62.3228   84.2734   16.1600 N.2     1  UNL1       -0.0256
     14 C          62.7633   85.7073   16.1549 C.2     1  UNL1        0.2907
     15 C          65.1411   91.5919   13.5153 C.ar    1  UNL1        0.0000
     16 C          65.7825   92.4187   14.5900 C.ar    1  UNL1        0.0000
     17 C          66.2738   93.8015   14.2797 C.ar    1  UNL1        0.0000
     18 C          66.1238   94.3576   12.8946 C.ar    1  UNL1        0.0000
     19 C          66.6151   95.7404   12.5843 C.ar    1  UNL1        0.0000
     20 C          66.4650   96.2964   11.1993 C.ar    1  UNL1        0.0000
     21 C          65.8236   95.4696   10.1246 C.ar    1  UNL1        0.0000
     22 C          65.3323   94.0868   10.4349 C.ar    1  UNL1        0.0000
     23 C          65.4824   93.5308   11.8199 C.ar    1  UNL1        0.0000
     24 C          64.9911   92.1479   12.1303 C.ar    1  UNL1        0.0000
     25 C          62.1343   82.3474   14.3160 C.ar    1  UNL1        0.0989
     26 C          60.7740   81.7747   14.5838 C.ar    1  UNL1        0.0085
     27 C          60.4451   80.3818   14.1349 C.ar    1  UNL1        0.0003
     28 C          61.4763   79.5616   13.4181 C.ar    1  UNL1        0.0009
     29 C          62.8366   80.1343   13.1504 C.ar    1  UNL1        0.0116
     30 C          63.1655   81.5272   13.5993 C.ar    1  UNL1        0.0651
     31 CL         64.5258   82.0999   13.3315 Cl      1  UNL1       -0.0820
@<TRIPOS>BOND
     1     1     2    2
     2     2     3    1
     3     3     4    2
     4     4     5   ar
     5     5     6   ar
     6     6    15    1
     7    15    16   ar
     8    16    17   ar
     9    17    18   ar
    10    18    19   ar
    11    19    20   ar
    12    20    21   ar
    13    21    22   ar
    14    22    23   ar
    15    23    24   ar
    16     6     7   ar
    17     7     8   ar
    18     8     9   ar
    19     9    10    2
    20    10    11    1
    21    11    12    2
    22    12    25    1
    23    25    26   ar
    24    26    27   ar
    25    27    28   ar
    26    28    29   ar
    27    29    30   ar
    28    30    31    1
    29    12    13    1
    30    13    14    2
    31    14     2    1
    32     9     4   ar
    33    14    10    1
    34    24    15   ar
    35    30    25   ar
    36    23    18   ar
@<TRIPOS>MOLECULE
*****
 31 36 0 0 0
SMALL
GASTEIGER

@<TRIPOS>ATOM
      1 O          63.8057   93.2155    0.9397 O.2     1  UNL1       -0.2638
      2 C          62.5071   92.9009    1.6214 C.2     1  UNL1        0.3160
      3 N          62.5004   92.0991    2.8891 N.am    1  UNL1       -0.1720
      4 C          61.2018   91.7845    3.5708 C.ar    1  UNL1        0.0775
      5 C          61.1951   90.9827    4.8384 C.ar    1  UNL1        0.0167
      6 C          59.8965   90.6681    5.5201 C.ar    1  UNL1        0.0013
      7 C          58.6046   91.1554    4.9340 C.ar    1  UNL1        0.0002
      8 C          58.6112   91.9572    3.6664 C.ar    1  UNL1        0.0051
      9 C          59.9098   92.2718    2.9848 C.ar    1  UNL1        0.0623
     10 C          59.9165   93.0736    1.7170 C.2     1  UNL1        0.2419
     11 N          58.8095   93.6842    0.9099 N.2     1  UNL1       -0.0302
     12 C          59.4239   94.3762   -0.2707 C.2     1  UNL1        0.3765
     13 N          60.9106   94.1932   -0.1931 N.2     1  UNL1       -0.0256
     14 C          61.2151   93.3882    1.0354 C.2     1  UNL1        0.2907
     15 C          59.8899   89.8663    6.7878 C.ar    1  UNL1        0.0000
     16 C          59.3239   88.4772    6.7936 C.ar    1  UNL1        0.0000
     17 C          59.3172   87.6753    8.0612 C.ar    1  UNL1        0.0000
     18 C          59.8765   88.2626    9.3232 C.ar    1  UNL1        0.0000
     19 C          59.8698   87.4607   10.5908 C.ar    1  UNL1        0.0000
     20 C          60.4290   88.0480   11.8527 C.ar    1  UNL1        0.0000
     21 C          60.9949   89.4372   11.8469 C.ar    1  UNL1        0.0000
     22 C          61.0016   90.2390   10.5792 C.ar    1  UNL1        0.0000
     23 C          60.4424   89.6517    9.3174 C.ar    1  UNL1        0.0000
     24 C          60.4491   90.4536    8.0497 C.ar    1  UNL1        0.0000
     25 C          58.6818   95.1204   -1.3410 C.ar    1  UNL1        0.0989
     26 C          57.6194   96.1110   -0.9667 C.ar    1  UNL1        0.0085
     27 C          56.8773   96.8552   -2.0369 C.ar    1  UNL1        0.0003
     28 C          57.1977   96.6088   -3.4815 C.ar    1  UNL1        0.0009
     29 C          58.2600   95.6183   -3.8558 C.ar    1  UNL1        0.0116
     30 C          59.0021   94.8741   -2.7855 C.ar    1  UNL1        0.0651
     31 CL         60.0645   93.8835   -3.1598 Cl      1  UNL1       -0.0820
@<TRIPOS>BOND
     1     1     2    2
     2     2     3    1
     3     3     4    2
     4     4     5   ar
     5     5     6   ar
     6     6    15    1
     7    15    16   ar
     8    16    17   ar
     9    17    18   ar
    10    18    19   ar
    11    19    20   ar
    12    20    21   ar
    13    21    22   ar
    14    22    23   ar
    15    23    24   ar
    16     6     7   ar
    17     7     8   ar
    18     8     9   ar
    19     9    10    2
    20    10    11    1
    21    11    12    2
    22    12    25    1
    23    25    26   ar
    24    26    27   ar
    25    27    28   ar
    26    28    29   ar
    27    29    30   ar
    28    30    31    1
    29    12    13    1
    30    13    14    2
    31    14     2    1
    32     9     4   ar
    33    14    10    1
    34    24    15   ar
    35    30    25   ar
    36    23    18   ar
