@<TRIPOS>MOLECULE
*****
 36 40 0 0 0
SMALL
GASTEIGER

@<TRIPOS>ATOM
      1 N          63.8398   86.9692   15.1716 N.am    1  UNL1       -0.2681
      2 C          64.2680   88.1663   14.3758 C.2     1  UNL1        0.3082
      3 O          64.4982   88.0419   12.8988 O.2     1  UNL1       -0.2522
      4 N          64.4662   89.4880   15.0571 N.am    1  UNL1       -0.2681
      5 H          63.6887   87.0508   16.1410 H       1  UNL1        0.1564
      6 H          64.3151   89.5697   16.0265 H       1  UNL1        0.1564
      7 C          63.2453   83.0042   13.1281 C.ar    1  UNL1        0.0001
      8 C          62.9536   84.2784   12.3922 C.ar    1  UNL1        0.0013
      9 C          63.1517   85.6001   13.0734 C.ar    1  UNL1        0.0147
     10 C          63.6416   85.6475   14.4903 C.ar    1  UNL1        0.0516
     11 C          63.9333   84.3734   15.2262 C.ar    1  UNL1        0.0147
     12 C          63.7352   83.0517   14.5450 C.ar    1  UNL1        0.0013
     13 N          62.4527   77.7176   10.4034 N.pl3   1  UNL1       -0.3570
     14 C          62.6509   79.0393   11.0846 C.ar    1  UNL1        0.0415
     15 C          62.4564   79.1554   12.5674 C.ar    1  UNL1        0.0141
     16 C          62.6546   80.4771   13.2486 C.ar    1  UNL1        0.0013
     17 C          63.0472   81.6826   12.4469 C.ar    1  UNL1        0.0001
     18 C          63.2416   81.5664   10.9641 C.ar    1  UNL1        0.0013
     19 C          63.0435   80.2448   10.2830 C.ar    1  UNL1        0.0141
     20 H          62.1950   76.9264   10.9295 H       1  UNL1        0.1424
     21 H          62.5803   77.6414    9.4302 H       1  UNL1        0.1424
     22 C          64.8945   90.6851   14.2613 C.ar    1  UNL1        0.0516
     23 C          64.1961   91.0211   12.9770 C.ar    1  UNL1        0.0147
     24 C          64.6244   92.2182   12.1813 C.ar    1  UNL1        0.0010
     25 C          65.7511   93.0796   12.6698 C.ar    1  UNL1       -0.0014
     26 C          66.4495   92.7437   13.9541 C.ar    1  UNL1        0.0010
     27 C          66.0212   91.5465   14.7498 C.ar    1  UNL1        0.0147
     28 C          66.1794   94.2768   11.8740 C.2     1  UNL1        0.0158
     29 C          65.8771   95.6578   12.3753 C.2     1  UNL1        0.0487
     30 C          66.3053   96.8550   11.5796 C.2     1  UNL1        0.2355
     31 N          67.0360   96.6712   10.2824 N.2     1  UNL1       -0.0325
     32 C          67.3383   95.2902    9.7812 C.2     1  UNL1        0.3799
     33 N          68.0379   94.8009    8.5478 N.2     1  UNL1       -0.0106
     34 C          68.0420   93.3013    8.5813 C.2     1  UNL1        0.3351
     35 N          67.3449   92.8637    9.8354 N.2     1  UNL1       -0.2103
     36 C          66.9101   94.0930   10.5770 C.3     1  UNL1        0.2404
@<TRIPOS>BOND
     1    13    14    1
     2    14    15   ar
     3    15    16   ar
     4    16    17   ar
     5    17     7    1
     6     7     8   ar
     7     8     9   ar
     8     9    10   ar
     9    10     1    1
    10     1     2   am
    11     2     3    2
    12     2     4   am
    13     4    22    1
    14    22    23   ar
    15    23    24   ar
    16    24    25   ar
    17    25    28    1
    18    28    29    2
    19    29    30    1
    20    30    31    2
    21    31    32    1
    22    32    33    2
    23    33    34    1
    24    34    35    2
    25    35    36    1
    26    25    26   ar
    27    26    27   ar
    28    10    11   ar
    29    11    12   ar
    30    17    18   ar
    31    18    19   ar
    32    19    14   ar
    33    12     7   ar
    34    27    22   ar
    35    36    28    1
    36    36    32    1
    37    13    20    1
    38    13    21    1
    39     1     5    1
    40     4     6    1
@<TRIPOS>MOLECULE
*****
 36 40 0 0 0
SMALL
GASTEIGER

@<TRIPOS>ATOM
      1 N          59.1725   90.0949    6.8094 N.am    1  UNL1       -0.2681
      2 C          59.8436   90.6262    5.5777 C.2     1  UNL1        0.3082
      3 O          61.1957   90.1130    5.1797 O.2     1  UNL1       -0.2522
      4 N          59.1626   91.6707    4.7438 N.am    1  UNL1       -0.2681
      5 H          58.2850   90.4317    7.0706 H       1  UNL1        0.1564
      6 H          58.2752   92.0076    5.0050 H       1  UNL1        0.1564
      7 C          61.2154   86.9614    9.3110 C.ar    1  UNL1        0.0001
      8 C          60.3901   86.5546    8.1262 C.ar    1  UNL1        0.0013
      9 C          59.7092   87.5992    7.2923 C.ar    1  UNL1        0.0147
     10 C          59.8535   89.0503    7.6432 C.ar    1  UNL1        0.0516
     11 C          60.6786   89.4571    8.8280 C.ar    1  UNL1        0.0147
     12 C          61.3596   88.4126    9.6618 C.ar    1  UNL1        0.0013
     13 N          63.9391   82.7834   12.6464 N.pl3   1  UNL1       -0.3570
     14 C          63.2581   83.8279   11.8125 C.ar    1  UNL1        0.0415
     15 C          62.3830   84.8561   12.4660 C.ar    1  UNL1        0.0141
     16 C          61.7021   85.9006   11.6321 C.ar    1  UNL1        0.0013
     17 C          61.8963   85.9169   10.1448 C.ar    1  UNL1        0.0001
     18 C          62.7714   84.8887    9.4914 C.ar    1  UNL1        0.0013
     19 C          63.4523   83.8442   10.3253 C.ar    1  UNL1        0.0141
     20 H          63.8116   82.7726   13.6226 H       1  UNL1        0.1424
     21 H          64.5135   82.1085   12.2175 H       1  UNL1        0.1424
     22 C          59.8337   92.2020    3.5121 C.ar    1  UNL1        0.0516
     23 C          61.3306   92.2044    3.4153 C.ar    1  UNL1        0.0147
     24 C          62.0017   92.7357    2.1836 C.ar    1  UNL1        0.0010
     25 C          61.1759   93.2647    1.0485 C.ar    1  UNL1       -0.0014
     26 C          59.6791   93.2623    1.1452 C.ar    1  UNL1        0.0010
     27 C          59.0080   92.7310    2.3770 C.ar    1  UNL1        0.0147
     28 C          61.8471   93.7960   -0.1833 C.2     1  UNL1        0.0158
     29 C          61.2861   93.4808   -1.5383 C.2     1  UNL1        0.0487
     30 C          61.9572   94.0120   -2.7700 C.2     1  UNL1        0.2355
     31 N          63.1894   94.8586   -2.6469 N.2     1  UNL1       -0.0325
     32 C          63.7504   95.1738   -1.2919 C.2     1  UNL1        0.3799
     33 N          64.9425   95.9758   -0.8610 N.2     1  UNL1       -0.0106
     34 C          65.0080   95.9402    0.6372 C.2     1  UNL1        0.3351
     35 N          63.8565   95.1162    1.1321 N.2     1  UNL1       -0.2103
     36 C          63.0793   94.6425   -0.0601 C.3     1  UNL1        0.2404
@<TRIPOS>BOND
     1    13    14    1
     2    14    15   ar
     3    15    16   ar
     4    16    17   ar
     5    17     7    1
     6     7     8   ar
     7     8     9   ar
     8     9    10   ar
     9    10     1    1
    10     1     2   am
    11     2     3    2
    12     2     4   am
    13     4    22    1
    14    22    23   ar
    15    23    24   ar
    16    24    25   ar
    17    25    28    1
    18    28    29    2
    19    29    30    1
    20    30    31    2
    21    31    32    1
    22    32    33    2
    23    33    34    1
    24    34    35    2
    25    35    36    1
    26    25    26   ar
    27    26    27   ar
    28    10    11   ar
    29    11    12   ar
    30    17    18   ar
    31    18    19   ar
    32    19    14   ar
    33    12     7   ar
    34    27    22   ar
    35    36    28    1
    36    36    32    1
    37    13    20    1
    38    13    21    1
    39     1     5    1
    40     4     6    1
@<TRIPOS>MOLECULE
*****
 36 40 0 0 0
SMALL
GASTEIGER

@<TRIPOS>ATOM
      1 N          59.1681   90.0693    6.8345 N.am    1  UNL1       -0.2681
      2 C          59.8271   90.6241    5.6066 C.2     1  UNL1        0.3082
      3 O          61.1783   90.1239    5.1896 O.2     1  UNL1       -0.2522
      4 N          59.1348   91.6790    4.7954 N.am    1  UNL1       -0.2681
      5 H          58.2812   90.3976    7.1081 H       1  UNL1        0.1564
      6 H          58.2478   92.0073    5.0691 H       1  UNL1        0.1564
      7 C          61.2449   86.9044    9.2678 C.ar    1  UNL1        0.0001
      8 C          61.4082   88.3523    9.6245 C.ar    1  UNL1        0.0013
      9 C          60.7159   89.4073    8.8133 C.ar    1  UNL1        0.0147
     10 C          59.8604   89.0144    7.6456 C.ar    1  UNL1        0.0516
     11 C          59.6970   87.5666    7.2889 C.ar    1  UNL1        0.0147
     12 C          60.3893   86.5116    8.1000 C.ar    1  UNL1        0.0013
     13 N          64.0139   82.6848   12.5123 N.pl3   1  UNL1       -0.3570
     14 C          63.3216   83.7398   11.7012 C.ar    1  UNL1        0.0415
     15 C          62.4226   84.7339   12.3745 C.ar    1  UNL1        0.0141
     16 C          61.7303   85.7888   11.5633 C.ar    1  UNL1        0.0013
     17 C          61.9371   85.8496   10.0788 C.ar    1  UNL1        0.0001
     18 C          62.8362   84.8554    9.4056 C.ar    1  UNL1        0.0013
     19 C          63.5284   83.8005   10.2167 C.ar    1  UNL1        0.0141
     20 H          63.8781   82.6449   13.4866 H       1  UNL1        0.1424
     21 H          64.6040   82.0323   12.0704 H       1  UNL1        0.1424
     22 C          59.7937   92.2338    3.5675 C.ar    1  UNL1        0.0516
     23 C          58.9577   92.6871    2.4075 C.ar    1  UNL1        0.0147
     24 C          59.6166   93.2419    1.1795 C.ar    1  UNL1        0.0010
     25 C          61.1117   93.3433    1.1115 C.ar    1  UNL1       -0.0014
     26 C          61.9478   92.8900    2.2715 C.ar    1  UNL1        0.0010
     27 C          61.2887   92.3352    3.4995 C.ar    1  UNL1        0.0147
     28 C          61.7707   93.8981   -0.1165 C.2     1  UNL1        0.0158
     29 C          63.1321   94.5206   -0.0208 C.2     1  UNL1        0.0487
     30 C          63.7910   95.0754   -1.2488 C.2     1  UNL1        0.2355
     31 N          63.0887   95.0076   -2.5725 N.2     1  UNL1       -0.0325
     32 C          61.7273   94.3851   -2.6681 C.2     1  UNL1        0.3799
     33 N          60.7978   94.1775   -3.8270 N.2     1  UNL1       -0.0106
     34 C          59.5643   93.4945   -3.3152 C.2     1  UNL1        0.3351
     35 N          59.7315   93.2799   -1.8400 N.2     1  UNL1       -0.2103
     36 C          61.0683   93.8303   -1.4401 C.3     1  UNL1        0.2404
@<TRIPOS>BOND
     1    13    14    1
     2    14    15   ar
     3    15    16   ar
     4    16    17   ar
     5    17     7    1
     6     7     8   ar
     7     8     9   ar
     8     9    10   ar
     9    10     1    1
    10     1     2   am
    11     2     3    2
    12     2     4   am
    13     4    22    1
    14    22    23   ar
    15    23    24   ar
    16    24    25   ar
    17    25    28    1
    18    28    29    2
    19    29    30    1
    20    30    31    2
    21    31    32    1
    22    32    33    2
    23    33    34    1
    24    34    35    2
    25    35    36    1
    26    25    26   ar
    27    26    27   ar
    28    10    11   ar
    29    11    12   ar
    30    17    18   ar
    31    18    19   ar
    32    19    14   ar
    33    12     7   ar
    34    27    22   ar
    35    36    28    1
    36    36    32    1
    37    13    20    1
    38    13    21    1
    39     1     5    1
    40     4     6    1
@<TRIPOS>MOLECULE
*****
 36 40 0 0 0
SMALL
GASTEIGER

@<TRIPOS>ATOM
      1 N          59.1618   91.7419    4.1411 N.am    1  UNL1       -0.2681
      2 C          59.8312   90.9116    5.1958 C.2     1  UNL1        0.3082
      3 O          61.3074   90.6555    5.1239 O.2     1  UNL1       -0.2522
      4 N          59.0244   90.3373    6.3225 N.am    1  UNL1       -0.2681
      5 H          58.1929   91.9099    4.1884 H       1  UNL1        0.1564
      6 H          58.0555   90.5053    6.3697 H       1  UNL1        0.1564
      7 C          61.5822   93.4648    0.7612 C.ar    1  UNL1        0.0001
      8 C          60.0839   93.4642    0.6866 C.ar    1  UNL1        0.0013
      9 C          59.2771   92.8898    1.8133 C.ar    1  UNL1        0.0147
     10 C          59.9686   92.3162    3.0144 C.ar    1  UNL1        0.0516
     11 C          61.4667   92.3168    3.0891 C.ar    1  UNL1        0.0147
     12 C          62.2735   92.8911    1.9625 C.ar    1  UNL1        0.0013
     13 N          64.8090   95.7619   -3.7454 N.pl3   1  UNL1       -0.3570
     14 C          64.0022   95.1876   -2.6187 C.ar    1  UNL1        0.0415
     15 C          62.6458   94.6067   -2.8877 C.ar    1  UNL1        0.0141
     16 C          61.8390   94.0324   -1.7610 C.ar    1  UNL1        0.0013
     17 C          62.3889   94.0390   -0.3654 C.ar    1  UNL1        0.0001
     18 C          63.7454   94.6200   -0.0965 C.ar    1  UNL1        0.0013
     19 C          64.5521   95.1943   -1.2232 C.ar    1  UNL1        0.0141
     20 H          64.4482   95.7576   -4.6614 H       1  UNL1        0.1424
     21 H          65.6994   96.1432   -3.5689 H       1  UNL1        0.1424
     22 C          59.6938   89.5070    7.3771 C.ar    1  UNL1        0.0516
     23 C          59.6061   88.0105    7.3215 C.ar    1  UNL1        0.0147
     24 C          60.2755   87.1803    8.3761 C.ar    1  UNL1        0.0010
     25 C          61.0327   87.8464    9.4866 C.ar    1  UNL1       -0.0014
     26 C          61.1204   89.3428    9.5423 C.ar    1  UNL1        0.0010
     27 C          60.4509   90.1730    8.4876 C.ar    1  UNL1        0.0147
     28 C          61.7021   87.0160   10.5413 C.2     1  UNL1        0.0158
     29 C          61.6012   85.5202   10.4944 C.2     1  UNL1        0.0487
     30 C          62.2706   84.6899   11.5490 C.2     1  UNL1        0.2355
     31 N          63.0410   85.3553   12.6507 N.2     1  UNL1       -0.0325
     32 C          63.1419   86.8512   12.6977 C.2     1  UNL1        0.3799
     33 N          63.8273   87.7813   13.6543 N.2     1  UNL1       -0.0106
     34 C          63.5814   89.1866   13.1908 C.2     1  UNL1        0.3351
     35 N          62.7441   89.1249   11.9477 N.2     1  UNL1       -0.2103
     36 C          62.4725   87.6815   11.6429 C.3     1  UNL1        0.2404
@<TRIPOS>BOND
     1    13    14    1
     2    14    15   ar
     3    15    16   ar
     4    16    17   ar
     5    17     7    1
     6     7     8   ar
     7     8     9   ar
     8     9    10   ar
     9    10     1    1
    10     1     2   am
    11     2     3    2
    12     2     4   am
    13     4    22    1
    14    22    23   ar
    15    23    24   ar
    16    24    25   ar
    17    25    28    1
    18    28    29    2
    19    29    30    1
    20    30    31    2
    21    31    32    1
    22    32    33    2
    23    33    34    1
    24    34    35    2
    25    35    36    1
    26    25    26   ar
    27    26    27   ar
    28    10    11   ar
    29    11    12   ar
    30    17    18   ar
    31    18    19   ar
    32    19    14   ar
    33    12     7   ar
    34    27    22   ar
    35    36    28    1
    36    36    32    1
    37    13    20    1
    38    13    21    1
    39     1     5    1
    40     4     6    1
@<TRIPOS>MOLECULE
*****
 36 40 0 0 0
SMALL
GASTEIGER

@<TRIPOS>ATOM
      1 N          58.6324   89.6534    6.3691 N.am    1  UNL1       -0.2681
      2 C          59.5521   88.9465    7.3199 C.2     1  UNL1        0.3082
      3 O          61.0267   89.2183    7.2787 O.2     1  UNL1       -0.2522
      4 N          58.9974   87.9676    8.3120 N.am    1  UNL1       -0.2681
      5 H          57.6645   89.4750    6.3961 H       1  UNL1        0.1564
      6 H          58.0295   87.7892    8.3390 H       1  UNL1        0.1564
      7 C          60.2967   92.5899    3.3929 C.ar    1  UNL1        0.0001
      8 C          58.8305   92.5926    3.7097 C.ar    1  UNL1        0.0013
      9 C          58.2757   91.6138    4.7018 C.ar    1  UNL1        0.0147
     10 C          59.1871   90.6323    5.3770 C.ar    1  UNL1        0.0516
     11 C          60.6533   90.6295    5.0601 C.ar    1  UNL1        0.0147
     12 C          61.2081   91.6083    4.0681 C.ar    1  UNL1        0.0013
     13 N          62.5155   96.5052   -0.5753 N.pl3   1  UNL1       -0.3570
     14 C          61.9607   95.5264    0.4168 C.ar    1  UNL1        0.0415
     15 C          60.7024   95.8499    1.1662 C.ar    1  UNL1        0.0141
     16 C          60.1476   94.8710    2.1583 C.ar    1  UNL1        0.0013
     17 C          60.8514   93.5686    2.4009 C.ar    1  UNL1        0.0001
     18 C          62.1098   93.2452    1.6513 C.ar    1  UNL1        0.0013
     19 C          62.6645   94.2241    0.6593 C.ar    1  UNL1        0.0141
     20 H          62.0536   97.3600   -0.7345 H       1  UNL1        0.1424
     21 H          63.3414   96.2929   -1.0673 H       1  UNL1        0.1424
     22 C          59.9171   87.2607    9.2628 C.ar    1  UNL1        0.0516
     23 C          60.6874   86.0573    8.8061 C.ar    1  UNL1        0.0147
     24 C          61.6072   85.3503    9.7569 C.ar    1  UNL1        0.0010
     25 C          61.7568   85.8467   11.1645 C.ar    1  UNL1       -0.0014
     26 C          60.9865   87.0501   11.6213 C.ar    1  UNL1        0.0010
     27 C          60.0667   87.7571   10.6703 C.ar    1  UNL1        0.0147
     28 C          62.6766   85.1397   12.1154 C.2     1  UNL1        0.0158
     29 C          62.8351   83.6502   12.0377 C.2     1  UNL1        0.0487
     30 C          63.7548   82.9432   12.9884 C.2     1  UNL1        0.2355
     31 N          64.5162   83.7257   14.0171 N.2     1  UNL1       -0.0325
     32 C          64.3577   85.2153   14.0948 C.2     1  UNL1        0.3799
     33 N          64.9730   86.2444   14.9961 N.2     1  UNL1       -0.0106
     34 C          64.4334   87.5874   14.6023 C.2     1  UNL1        0.3351
     35 N          63.4847   87.3884   13.4576 N.2     1  UNL1       -0.2103
     36 C          63.4379   85.9223   13.1440 C.3     1  UNL1        0.2404
@<TRIPOS>BOND
     1    13    14    1
     2    14    15   ar
     3    15    16   ar
     4    16    17   ar
     5    17     7    1
     6     7     8   ar
     7     8     9   ar
     8     9    10   ar
     9    10     1    1
    10     1     2   am
    11     2     3    2
    12     2     4   am
    13     4    22    1
    14    22    23   ar
    15    23    24   ar
    16    24    25   ar
    17    25    28    1
    18    28    29    2
    19    29    30    1
    20    30    31    2
    21    31    32    1
    22    32    33    2
    23    33    34    1
    24    34    35    2
    25    35    36    1
    26    25    26   ar
    27    26    27   ar
    28    10    11   ar
    29    11    12   ar
    30    17    18   ar
    31    18    19   ar
    32    19    14   ar
    33    12     7   ar
    34    27    22   ar
    35    36    28    1
    36    36    32    1
    37    13    20    1
    38    13    21    1
    39     1     5    1
    40     4     6    1
@<TRIPOS>MOLECULE
*****
 36 40 0 0 0
SMALL
GASTEIGER

@<TRIPOS>ATOM
      1 N          58.6338   89.4204    6.5619 N.am    1  UNL1       -0.2681
      2 C          59.5842   88.8070    7.5469 C.2     1  UNL1        0.3082
      3 O          61.0291   89.2098    7.5458 O.2     1  UNL1       -0.2522
      4 N          59.0897   87.7906    8.5331 N.am    1  UNL1       -0.2681
      5 H          57.6855   89.1560    6.5626 H       1  UNL1        0.1564
      6 H          58.1414   87.5262    8.5339 H       1  UNL1        0.1564
      7 C          60.1172   92.4694    3.6032 C.ar    1  UNL1        0.0001
      8 C          58.6558   92.3936    3.9332 C.ar    1  UNL1        0.0013
      9 C          58.1614   91.3772    4.9195 C.ar    1  UNL1        0.0147
     10 C          59.1283   90.4368    5.5756 C.ar    1  UNL1        0.0516
     11 C          60.5895   90.5125    5.2457 C.ar    1  UNL1        0.0147
     12 C          61.0840   91.5288    4.2595 C.ar    1  UNL1        0.0013
     13 N          62.0949   96.5346   -0.3417 N.pl3   1  UNL1       -0.3570
     14 C          61.6005   95.5182    0.6446 C.ar    1  UNL1        0.0415
     15 C          62.1151   94.1103    0.5923 C.ar    1  UNL1        0.0141
     16 C          61.6207   93.0939    1.5785 C.ar    1  UNL1        0.0013
     17 C          60.6116   93.4857    2.6171 C.ar    1  UNL1        0.0001
     18 C          60.0970   94.8937    2.6693 C.ar    1  UNL1        0.0013
     19 C          60.5915   95.9100    1.6831 C.ar    1  UNL1        0.0141
     20 H          62.7572   96.2776   -1.0233 H       1  UNL1        0.1424
     21 H          61.7572   97.4587   -0.3073 H       1  UNL1        0.1424
     22 C          60.0401   87.1772    9.5182 C.ar    1  UNL1        0.0516
     23 C          60.1311   87.7229   10.9124 C.ar    1  UNL1        0.0147
     24 C          61.0814   87.1095   11.8975 C.ar    1  UNL1        0.0010
     25 C          61.9410   85.9502   11.4883 C.ar    1  UNL1       -0.0014
     26 C          61.8501   85.4044   10.0941 C.ar    1  UNL1        0.0010
     27 C          60.8996   86.0179    9.1090 C.ar    1  UNL1        0.0147
     28 C          62.8914   85.3367   12.4734 C.2     1  UNL1        0.0158
     29 C          63.6642   86.2121   13.4149 C.2     1  UNL1        0.0487
     30 C          64.6146   85.5987   14.4000 C.2     1  UNL1        0.2355
     31 N          64.7923   84.1098   14.4436 N.2     1  UNL1       -0.0325
     32 C          64.0195   83.2345   13.5020 C.2     1  UNL1        0.3799
     33 N          63.9864   81.7468   13.3134 N.2     1  UNL1       -0.0106
     34 C          63.0155   81.4408   12.2117 C.2     1  UNL1        0.3351
     35 N          62.4486   82.7393   11.7194 N.2     1  UNL1       -0.2103
     36 C          63.0690   83.8479   12.5169 C.3     1  UNL1        0.2404
@<TRIPOS>BOND
     1    13    14    1
     2    14    15   ar
     3    15    16   ar
     4    16    17   ar
     5    17     7    1
     6     7     8   ar
     7     8     9   ar
     8     9    10   ar
     9    10     1    1
    10     1     2   am
    11     2     3    2
    12     2     4   am
    13     4    22    1
    14    22    23   ar
    15    23    24   ar
    16    24    25   ar
    17    25    28    1
    18    28    29    2
    19    29    30    1
    20    30    31    2
    21    31    32    1
    22    32    33    2
    23    33    34    1
    24    34    35    2
    25    35    36    1
    26    25    26   ar
    27    26    27   ar
    28    10    11   ar
    29    11    12   ar
    30    17    18   ar
    31    18    19   ar
    32    19    14   ar
    33    12     7   ar
    34    27    22   ar
    35    36    28    1
    36    36    32    1
    37    13    20    1
    38    13    21    1
    39     1     5    1
    40     4     6    1
@<TRIPOS>MOLECULE
*****
 36 40 0 0 0
SMALL
GASTEIGER

@<TRIPOS>ATOM
      1 N          58.9558   88.1144    8.0247 N.am    1  UNL1       -0.2681
      2 C          59.5311   89.1243    7.0766 C.2     1  UNL1        0.3082
      3 O          60.9892   89.4699    7.1428 O.2     1  UNL1       -0.2522
      4 N          58.6483   89.7887    6.0620 N.am    1  UNL1       -0.2681
      5 H          57.9988   87.8876    7.9811 H       1  UNL1        0.1564
      6 H          57.6912   89.5620    6.0184 H       1  UNL1        0.1564
      7 C          61.6042   86.1213   11.0683 C.ar    1  UNL1        0.0001
      8 C          61.4878   85.5497    9.6863 C.ar    1  UNL1        0.0013
      9 C          60.6050   86.2141    8.6718 C.ar    1  UNL1        0.0147
     10 C          59.8386   87.4500    9.0392 C.ar    1  UNL1        0.0516
     11 C          59.9549   88.0216   10.4211 C.ar    1  UNL1        0.0147
     12 C          60.8377   87.3572   11.4357 C.ar    1  UNL1        0.0013
     13 N          65.1353   83.4635   15.1263 N.pl3   1  UNL1       -0.3570
     14 C          64.2524   84.1279   14.1117 C.ar    1  UNL1        0.0415
     15 C          63.5100   83.2990   13.1061 C.ar    1  UNL1        0.0141
     16 C          62.6272   83.9634   12.0915 C.ar    1  UNL1        0.0013
     17 C          62.4869   85.4569   12.0828 C.ar    1  UNL1        0.0001
     18 C          63.2295   86.2858   13.0885 C.ar    1  UNL1        0.0013
     19 C          64.1122   85.6213   14.1030 C.ar    1  UNL1        0.0141
     20 H          65.2273   82.4833   15.1321 H       1  UNL1        0.1424
     21 H          65.6226   84.0076   15.7864 H       1  UNL1        0.1424
     22 C          59.2235   90.7986    5.1139 C.ar    1  UNL1        0.0516
     23 C          60.7012   90.8301    4.8574 C.ar    1  UNL1        0.0147
     24 C          61.2765   91.8400    3.9092 C.ar    1  UNL1        0.0010
     25 C          60.3742   92.8186    3.2175 C.ar    1  UNL1       -0.0014
     26 C          58.8966   92.7871    3.4740 C.ar    1  UNL1        0.0010
     27 C          58.3213   91.7771    4.4222 C.ar    1  UNL1        0.0147
     28 C          60.9495   93.8285    2.2693 C.2     1  UNL1        0.0158
     29 C          60.1294   95.0101    1.8438 C.2     1  UNL1        0.0487
     30 C          60.7047   96.0200    0.8957 C.2     1  UNL1        0.2355
     31 N          62.1002   95.8484    0.3730 N.2     1  UNL1       -0.0325
     32 C          62.9203   94.6667    0.7985 C.2     1  UNL1        0.3799
     33 N          64.3147   94.2358    0.4522 N.2     1  UNL1       -0.0106
     34 C          64.6011   92.9595    1.1864 C.2     1  UNL1        0.3351
     35 N          63.3838   92.6016    1.9864 N.2     1  UNL1       -0.2103
     36 C          62.3450   93.6568    1.7467 C.3     1  UNL1        0.2404
@<TRIPOS>BOND
     1    13    14    1
     2    14    15   ar
     3    15    16   ar
     4    16    17   ar
     5    17     7    1
     6     7     8   ar
     7     8     9   ar
     8     9    10   ar
     9    10     1    1
    10     1     2   am
    11     2     3    2
    12     2     4   am
    13     4    22    1
    14    22    23   ar
    15    23    24   ar
    16    24    25   ar
    17    25    28    1
    18    28    29    2
    19    29    30    1
    20    30    31    2
    21    31    32    1
    22    32    33    2
    23    33    34    1
    24    34    35    2
    25    35    36    1
    26    25    26   ar
    27    26    27   ar
    28    10    11   ar
    29    11    12   ar
    30    17    18   ar
    31    18    19   ar
    32    19    14   ar
    33    12     7   ar
    34    27    22   ar
    35    36    28    1
    36    36    32    1
    37    13    20    1
    38    13    21    1
    39     1     5    1
    40     4     6    1
@<TRIPOS>MOLECULE
*****
 36 40 0 0 0
SMALL
GASTEIGER

@<TRIPOS>ATOM
      1 N          58.9714   92.1471    3.8643 N.am    1  UNL1       -0.2681
      2 C          59.5801   91.1973    4.8528 C.2     1  UNL1        0.3082
      3 O          60.9976   90.7390    4.6776 O.2     1  UNL1       -0.2522
      4 N          58.7714   90.7059    6.0167 N.am    1  UNL1       -0.2681
      5 H          58.0411   92.4479    3.9793 H       1  UNL1        0.1564
      6 H          57.8411   91.0067    6.1317 H       1  UNL1        0.1564
      7 C          61.3975   93.6215    0.3728 C.ar    1  UNL1        0.0001
      8 C          59.9123   93.4592    0.2389 C.ar    1  UNL1        0.0013
      9 C          59.1036   92.9677    1.4028 C.ar    1  UNL1        0.0147
     10 C          59.7801   92.6386    2.7004 C.ar    1  UNL1        0.0516
     11 C          61.2652   92.8008    2.8343 C.ar    1  UNL1        0.0147
     12 C          62.0740   93.2923    1.6705 C.ar    1  UNL1        0.0013
     13 N          64.6320   95.5873   -4.2826 N.pl3   1  UNL1       -0.3570
     14 C          63.8233   95.0958   -3.1187 C.ar    1  UNL1        0.0415
     15 C          62.4730   94.4847   -3.3485 C.ar    1  UNL1        0.0141
     16 C          61.6643   93.9932   -2.1846 C.ar    1  UNL1        0.0013
     17 C          62.2061   94.1129   -0.7910 C.ar    1  UNL1        0.0001
     18 C          63.5566   94.7242   -0.5613 C.ar    1  UNL1        0.0013
     19 C          64.3652   95.2156   -1.7252 C.ar    1  UNL1        0.0141
     20 H          64.2765   95.5087   -5.1973 H       1  UNL1        0.1424
     21 H          65.5184   95.9885   -4.1318 H       1  UNL1        0.1424
     22 C          59.3801   89.7561    7.0052 C.ar    1  UNL1        0.0516
     23 C          60.2735   90.2757    8.0924 C.ar    1  UNL1        0.0147
     24 C          60.8822   89.3260    9.0810 C.ar    1  UNL1        0.0010
     25 C          60.5976   87.8565    8.9824 C.ar    1  UNL1       -0.0014
     26 C          59.7043   87.3368    7.8952 C.ar    1  UNL1        0.0010
     27 C          59.0956   88.2867    6.9067 C.ar    1  UNL1        0.0147
     28 C          61.2064   86.9067    9.9710 C.2     1  UNL1        0.0158
     29 C          60.8903   87.0395   11.4313 C.2     1  UNL1        0.0487
     30 C          61.4990   86.0898   12.4198 C.2     1  UNL1        0.2355
     31 N          62.4240   85.0071   11.9482 N.2     1  UNL1       -0.0325
     32 C          62.7401   84.8743   10.4879 C.2     1  UNL1        0.3799
     33 N          63.6096   83.9133    9.7327 N.2     1  UNL1       -0.0106
     34 C          63.5383   84.2692    8.2772 C.2     1  UNL1        0.3351
     35 N          62.6246   85.4501    8.1330 N.2     1  UNL1       -0.2103
     36 C          62.1313   85.8241    9.4993 C.3     1  UNL1        0.2404
@<TRIPOS>BOND
     1    13    14    1
     2    14    15   ar
     3    15    16   ar
     4    16    17   ar
     5    17     7    1
     6     7     8   ar
     7     8     9   ar
     8     9    10   ar
     9    10     1    1
    10     1     2   am
    11     2     3    2
    12     2     4   am
    13     4    22    1
    14    22    23   ar
    15    23    24   ar
    16    24    25   ar
    17    25    28    1
    18    28    29    2
    19    29    30    1
    20    30    31    2
    21    31    32    1
    22    32    33    2
    23    33    34    1
    24    34    35    2
    25    35    36    1
    26    25    26   ar
    27    26    27   ar
    28    10    11   ar
    29    11    12   ar
    30    17    18   ar
    31    18    19   ar
    32    19    14   ar
    33    12     7   ar
    34    27    22   ar
    35    36    28    1
    36    36    32    1
    37    13    20    1
    38    13    21    1
    39     1     5    1
    40     4     6    1
@<TRIPOS>MOLECULE
*****
 36 40 0 0 0
SMALL
GASTEIGER

@<TRIPOS>ATOM
      1 N          58.9957   88.5681    7.8008 N.am    1  UNL1       -0.2681
      2 C          59.6749   89.4425    6.7889 C.2     1  UNL1        0.3082
      3 O          61.1720   89.5306    6.7581 O.2     1  UNL1       -0.2522
      4 N          58.8570   90.2290    5.8077 N.am    1  UNL1       -0.2681
      5 H          58.0131   88.5104    7.8210 H       1  UNL1        0.1564
      6 H          57.8744   90.1712    5.8279 H       1  UNL1        0.1564
      7 C          61.4492   86.2089   10.7443 C.ar    1  UNL1        0.0001
      8 C          61.4083   85.7977    9.3023 C.ar    1  UNL1        0.0013
      9 C          60.5904   86.5842    8.3211 C.ar    1  UNL1        0.0147
     10 C          59.8136   87.7817    8.7820 C.ar    1  UNL1        0.0516
     11 C          59.8545   88.1928   10.2239 C.ar    1  UNL1        0.0147
     12 C          60.6723   87.4064   11.2051 C.ar    1  UNL1        0.0013
     13 N          64.7206   83.0633   14.6690 N.pl3   1  UNL1       -0.3570
     14 C          63.9027   83.8497   13.6878 C.ar    1  UNL1        0.0415
     15 C          63.8831   85.3479   13.7585 C.ar    1  UNL1        0.0141
     16 C          63.0652   86.1344   12.7773 C.ar    1  UNL1        0.0013
     17 C          62.2670   85.4225   11.7254 C.ar    1  UNL1        0.0001
     18 C          62.2868   83.9243   11.6548 C.ar    1  UNL1        0.0013
     19 C          63.1046   83.1379   12.6360 C.ar    1  UNL1        0.0141
     20 H          65.2445   83.5304   15.3593 H       1  UNL1        0.1424
     21 H          64.7335   82.0799   14.6226 H       1  UNL1        0.1424
     22 C          59.5362   91.1034    4.7958 C.ar    1  UNL1        0.0516
     23 C          58.7507   92.1478    4.0593 C.ar    1  UNL1        0.0147
     24 C          59.4299   93.0222    3.0474 C.ar    1  UNL1        0.0010
     25 C          60.8947   92.8523    2.7720 C.ar    1  UNL1       -0.0014
     26 C          61.6801   91.8080    3.5085 C.ar    1  UNL1        0.0010
     27 C          61.0009   90.9336    4.5204 C.ar    1  UNL1        0.0147
     28 C          61.5739   93.7268    1.7600 C.2     1  UNL1        0.0158
     29 C          62.9807   93.4278    1.3342 C.2     1  UNL1        0.0487
     30 C          63.6599   94.3022    0.3223 C.2     1  UNL1        0.2355
     31 N          62.9322   95.4758   -0.2638 N.2     1  UNL1       -0.0325
     32 C          61.5254   95.7747    0.1620 C.2     1  UNL1        0.3799
     33 N          60.5633   96.8535   -0.2387 N.2     1  UNL1       -0.0106
     34 C          59.2894   96.6457    0.5256 C.2     1  UNL1        0.3351
     35 N          59.4643   95.4386    1.3987 N.2     1  UNL1       -0.2103
     36 C          60.8462   94.9003    1.1740 C.3     1  UNL1        0.2404
@<TRIPOS>BOND
     1    13    14    1
     2    14    15   ar
     3    15    16   ar
     4    16    17   ar
     5    17     7    1
     6     7     8   ar
     7     8     9   ar
     8     9    10   ar
     9    10     1    1
    10     1     2   am
    11     2     3    2
    12     2     4   am
    13     4    22    1
    14    22    23   ar
    15    23    24   ar
    16    24    25   ar
    17    25    28    1
    18    28    29    2
    19    29    30    1
    20    30    31    2
    21    31    32    1
    22    32    33    2
    23    33    34    1
    24    34    35    2
    25    35    36    1
    26    25    26   ar
    27    26    27   ar
    28    10    11   ar
    29    11    12   ar
    30    17    18   ar
    31    18    19   ar
    32    19    14   ar
    33    12     7   ar
    34    27    22   ar
    35    36    28    1
    36    36    32    1
    37    13    20    1
    38    13    21    1
    39     1     5    1
    40     4     6    1
