@<TRIPOS>MOLECULE
*****
 30 32 0 0 0
SMALL
GASTEIGER

@<TRIPOS>ATOM
      1 N          65.2426   92.8479   13.7304 N.am    1  UNL1       -0.2508
      2 C          65.1749   91.4013   13.3395 C.2     1  UNL1        0.3089
      3 O          65.6860   90.9618   11.9995 O.2     1  UNL1       -0.2522
      4 N          64.5962   90.3942   14.2886 N.am    1  UNL1       -0.2621
      5 C          64.1145   90.9385   15.6009 C.3     1  UNL1        0.0968
      6 C          63.4933   90.1989   16.7487 C.3     1  UNL1        0.0431
      7 C          63.2005   88.7327   16.8676 C.3     1  UNL1        0.0968
      8 N          63.4564   87.6437   15.8683 N.am    1  UNL1       -0.2622
      9 C          63.0461   86.2639   16.2899 C.2     1  UNL1        0.3073
     10 O          62.4237   86.0453   17.6371 O.2     1  UNL1       -0.2523
     11 N          63.2581   85.1027   15.3643 N.am    1  UNL1       -0.2604
     12 C          63.8804   85.3213   14.0171 C.3     1  UNL1        0.1203
     13 C          64.0924   84.1601   13.0916 C.3     1  UNL1        0.1723
     14 S          63.6820   82.7803   13.5132 S.O2    1  UNL1       -0.0066
     15 O          63.4612   81.2976   13.4605 O.2     1  UNL1       -0.1729
     16 O          64.2277   82.4840   12.1477 O.2     1  UNL1       -0.1729
     17 C          63.0597   82.5617   14.8604 C.3     1  UNL1        0.1723
     18 C          62.8477   83.7228   15.7860 C.3     1  UNL1        0.1203
     19 C          64.0685   87.7520   14.5032 C.3     1  UNL1        0.1164
     20 C          64.5757   88.9762   13.8002 C.3     1  UNL1        0.1164
     21 H          64.9072   93.1363   14.6099 H       1  UNL1        0.1579
     22 C          66.5072   94.9756   10.7405 C.ar    1  UNL1        0.1549
     23 C          65.8303   93.7526   11.2847 C.ar    1  UNL1        0.0734
     24 C          65.8214   93.8550   12.7812 C.ar    1  UNL1        0.1771
     25 N          66.4928   95.1412   13.1618 N.ar    1  UNL1       -0.0621
     26 O          66.9166   95.8337   11.9007 O.2     1  UNL1       -0.3565
     27 C          67.6518   94.1039    9.1816 C.3     1  UNL1        0.0076
     28 C          66.7347   95.2859    9.2907 C.3     1  UNL1        0.0539
     29 C          65.8177   96.4679    9.3997 C.3     1  UNL1        0.0076
     30 C          66.9622   95.5962    7.8408 C.3     1  UNL1        0.0076
@<TRIPOS>BOND
     1    27    28    1
     2    28    29    1
     3    28    30    1
     4    28    22    1
     5    22    23   ar
     6    23    24   ar
     7    24     1    1
     8     1     2   am
     9     2     3    2
    10     2     4   am
    11     4     5    1
    12     5     6    1
    13     6     7    1
    14     7     8    1
    15     8     9   am
    16     9    10    2
    17     9    11   am
    18    11    12    1
    19    12    13    1
    20    13    14    1
    21    14    15    2
    22    14    16    2
    23    14    17    1
    24    17    18    1
    25     8    19    1
    26    19    20    1
    27    24    25   ar
    28    25    26   ar
    29    26    22   ar
    30    20     4    1
    31    18    11    1
    32     1    21    1
@<TRIPOS>MOLECULE
*****
 30 32 0 0 0
SMALL
GASTEIGER

@<TRIPOS>ATOM
      1 N          60.7421   89.5102    8.6625 N.am    1  UNL1       -0.2508
      2 C          60.8621   88.0777    9.0906 C.2     1  UNL1        0.3089
      3 O          60.1901   86.9983    8.2947 O.2     1  UNL1       -0.2522
      4 N          61.6541   87.7244   10.3145 N.am    1  UNL1       -0.2621
      5 C          62.2848   88.8779   11.0368 C.3     1  UNL1        0.0968
      6 C          63.1279   88.8562   12.2773 C.3     1  UNL1        0.0431
      7 C          63.5484   87.6759   13.1018 C.3     1  UNL1        0.0968
      8 N          63.2297   86.2256   12.8895 N.am    1  UNL1       -0.2622
      9 C          63.8050   85.2781   13.9001 C.2     1  UNL1        0.3073
     10 O          64.6389   85.8033   15.0309 O.2     1  UNL1       -0.2523
     11 N          63.5464   83.8054   13.7798 N.am    1  UNL1       -0.2604
     12 C          62.7125   83.2803   12.6490 C.3     1  UNL1        0.1203
     13 C          62.4540   81.8076   12.5288 C.3     1  UNL1        0.1723
     14 S          63.0292   80.8602   13.5394 S.O2    1  UNL1       -0.0066
     15 O          63.3541   79.5753   14.2420 O.2     1  UNL1       -0.1729
     16 O          62.3081   79.8888   12.6525 O.2     1  UNL1       -0.1729
     17 C          63.8631   81.3854   14.6702 C.3     1  UNL1        0.1723
     18 C          64.1218   82.8580   14.7905 C.3     1  UNL1        0.1203
     19 C          62.4118   85.5975   11.8002 C.3     1  UNL1        0.1164
     20 C          61.7106   86.2646   10.6543 C.3     1  UNL1        0.1164
     21 H          61.1831   90.2187    9.1848 H       1  UNL1        0.1579
     22 C          59.2555   90.9067    5.3601 C.ar    1  UNL1        0.1549
     23 C          60.3327   90.8796    6.4037 C.ar    1  UNL1        0.0734
     24 C          59.9500   89.8635    7.4385 C.ar    1  UNL1        0.1771
     25 N          58.6363   89.2625    7.0346 N.ar    1  UNL1       -0.0621
     26 O          58.2071   89.9073    5.7501 O.2     1  UNL1       -0.3565
     27 C          60.7264   91.7014    4.0544 C.3     1  UNL1        0.0076
     28 C          59.2310   91.7799    4.1407 C.3     1  UNL1        0.0539
     29 C          57.7355   91.8585    4.2270 C.3     1  UNL1        0.0076
     30 C          59.2064   92.6531    2.9213 C.3     1  UNL1        0.0076
@<TRIPOS>BOND
     1    27    28    1
     2    28    29    1
     3    28    30    1
     4    28    22    1
     5    22    23   ar
     6    23    24   ar
     7    24     1    1
     8     1     2   am
     9     2     3    2
    10     2     4   am
    11     4     5    1
    12     5     6    1
    13     6     7    1
    14     7     8    1
    15     8     9   am
    16     9    10    2
    17     9    11   am
    18    11    12    1
    19    12    13    1
    20    13    14    1
    21    14    15    2
    22    14    16    2
    23    14    17    1
    24    17    18    1
    25     8    19    1
    26    19    20    1
    27    24    25   ar
    28    25    26   ar
    29    26    22   ar
    30    20     4    1
    31    18    11    1
    32     1    21    1
@<TRIPOS>MOLECULE
*****
 30 32 0 0 0
SMALL
GASTEIGER

@<TRIPOS>ATOM
      1 N          62.5116   85.4211   12.7714 N.am    1  UNL1       -0.2508
      2 C          63.5038   86.3021   13.4709 C.2     1  UNL1        0.3089
      3 O          64.3499   85.7470   14.5782 O.2     1  UNL1       -0.2522
      4 N          63.6500   87.7381   13.0631 N.am    1  UNL1       -0.2621
      5 C          62.7572   88.1916   11.9463 C.3     1  UNL1        0.0968
      6 C          62.6635   89.5499   11.3165 C.3     1  UNL1        0.0431
      7 C          63.4395   90.7899   11.6481 C.3     1  UNL1        0.0968
      8 N          64.5009   90.9782   12.6912 N.am    1  UNL1       -0.2622
      9 C          65.0930   92.3536   12.7764 C.2     1  UNL1        0.3073
     10 O          64.6159   93.4342   11.8518 O.2     1  UNL1       -0.2523
     11 N          66.1623   92.6487   13.7861 N.am    1  UNL1       -0.2604
     12 C          66.6394   91.5682   14.7107 C.3     1  UNL1        0.1203
     13 C          67.7087   91.8633   15.7204 C.3     1  UNL1        0.1723
     14 S          68.3009   93.2387   15.8056 S.O2    1  UNL1       -0.0066
     15 O          69.1628   94.3762   16.2676 O.2     1  UNL1       -0.1729
     16 O          69.0774   92.5532   16.8907 O.2     1  UNL1       -0.1729
     17 C          67.8238   94.3192   14.8810 C.3     1  UNL1        0.1723
     18 C          66.7545   94.0243   13.8713 C.3     1  UNL1        0.1203
     19 C          65.0483   89.9728   13.6605 C.3     1  UNL1        0.1164
     20 C          64.6696   88.5308   13.8259 C.3     1  UNL1        0.1164
     21 H          61.9563   85.7854   12.0447 H       1  UNL1        0.1579
     22 C          62.3346   81.5589   13.1153 C.ar    1  UNL1        0.1549
     23 C          62.5936   82.7912   12.3001 C.ar    1  UNL1        0.0734
     24 C          62.3654   83.9849   13.1793 C.ar    1  UNL1        0.1771
     25 N          61.9654   83.4905   14.5378 N.ar    1  UNL1       -0.0621
     26 O          61.9464   81.9912   14.4982 O.2     1  UNL1       -0.3565
     27 C          62.8877   80.6363   11.2869 C.3     1  UNL1        0.0076
     28 C          62.4446   80.1430   12.6324 C.3     1  UNL1        0.0539
     29 C          62.0014   79.6497   13.9779 C.3     1  UNL1        0.0076
     30 C          62.5545   78.7271   12.1495 C.3     1  UNL1        0.0076
@<TRIPOS>BOND
     1    27    28    1
     2    28    29    1
     3    28    30    1
     4    28    22    1
     5    22    23   ar
     6    23    24   ar
     7    24     1    1
     8     1     2   am
     9     2     3    2
    10     2     4   am
    11     4     5    1
    12     5     6    1
    13     6     7    1
    14     7     8    1
    15     8     9   am
    16     9    10    2
    17     9    11   am
    18    11    12    1
    19    12    13    1
    20    13    14    1
    21    14    15    2
    22    14    16    2
    23    14    17    1
    24    17    18    1
    25     8    19    1
    26    19    20    1
    27    24    25   ar
    28    25    26   ar
    29    26    22   ar
    30    20     4    1
    31    18    11    1
    32     1    21    1
@<TRIPOS>MOLECULE
*****
 30 32 0 0 0
SMALL
GASTEIGER

@<TRIPOS>ATOM
      1 N          61.7303   94.6525   -2.8666 N.am    1  UNL1       -0.2508
      2 C          60.3032   94.9855   -2.5465 C.2     1  UNL1        0.3089
      3 O          59.9013   95.2818   -1.1321 O.2     1  UNL1       -0.2522
      4 N          59.2780   95.0221   -3.6409 N.am    1  UNL1       -0.2621
      5 C          59.7847   94.7106   -5.0180 C.3     1  UNL1        0.0968
      6 C          59.0201   94.6654   -6.3078 C.3     1  UNL1        0.0431
      7 C          57.5603   94.9206   -6.5390 C.3     1  UNL1        0.0968
      8 N          56.5042   95.2839   -5.5376 N.am    1  UNL1       -0.2622
      9 C          55.1224   95.4746   -6.0891 C.2     1  UNL1        0.3073
     10 O          54.8703   95.3001   -7.5574 O.2     1  UNL1       -0.2523
     11 N          53.9927   95.8397   -5.1722 N.am    1  UNL1       -0.2604
     12 C          54.2449   96.0141   -3.7039 C.3     1  UNL1        0.1203
     13 C          53.1152   96.3792   -2.7872 C.3     1  UNL1        0.1723
     14 S          51.7334   96.5698   -3.3387 S.O2    1  UNL1       -0.0066
     15 O          50.2615   96.8555   -3.3859 O.2     1  UNL1       -0.1729
     16 O          51.4744   96.8435   -1.8867 O.2     1  UNL1       -0.1729
     17 C          51.4812   96.3954   -4.8070 C.3     1  UNL1        0.1723
     18 C          52.6108   96.0303   -5.7238 C.3     1  UNL1        0.1203
     19 C          56.6473   95.4819   -4.0576 C.3     1  UNL1        0.1164
     20 C          57.8818   95.3653   -3.2135 C.3     1  UNL1        0.1164
     21 H          61.9941   94.4580   -3.7950 H       1  UNL1        0.1579
     22 C          64.1312   95.2500    0.1242 C.ar    1  UNL1        0.1549
     23 C          63.0313   95.7114   -0.7854 C.ar    1  UNL1        0.0734
     24 C          62.7556   94.6159   -1.7722 C.ar    1  UNL1        0.1771
     25 N          63.6850   93.4773   -1.4725 N.ar    1  UNL1       -0.0621
     26 O          64.5351   93.8692   -0.3005 O.2     1  UNL1       -0.3565
     27 C          63.9151   95.2281    2.2344 C.3     1  UNL1        0.0076
     28 C          64.7231   96.0319    1.2592 C.3     1  UNL1        0.0539
     29 C          65.5311   96.8358    0.2840 C.3     1  UNL1        0.0076
     30 C          65.3150   96.8139    2.3942 C.3     1  UNL1        0.0076
@<TRIPOS>BOND
     1    27    28    1
     2    28    29    1
     3    28    30    1
     4    28    22    1
     5    22    23   ar
     6    23    24   ar
     7    24     1    1
     8     1     2   am
     9     2     3    2
    10     2     4   am
    11     4     5    1
    12     5     6    1
    13     6     7    1
    14     7     8    1
    15     8     9   am
    16     9    10    2
    17     9    11   am
    18    11    12    1
    19    12    13    1
    20    13    14    1
    21    14    15    2
    22    14    16    2
    23    14    17    1
    24    17    18    1
    25     8    19    1
    26    19    20    1
    27    24    25   ar
    28    25    26   ar
    29    26    22   ar
    30    20     4    1
    31    18    11    1
    32     1    21    1
@<TRIPOS>MOLECULE
*****
 30 32 0 0 0
SMALL
GASTEIGER

@<TRIPOS>ATOM
      1 N          56.4758   91.3351   -2.4326 N.am    1  UNL1       -0.2508
      2 C          57.7557   91.8853   -2.9886 C.2     1  UNL1        0.3089
      3 O          58.1578   91.5697   -4.3988 O.2     1  UNL1       -0.2522
      4 N          58.6335   92.7513   -2.1344 N.am    1  UNL1       -0.2621
      5 C          58.1393   93.0049   -0.7409 C.3     1  UNL1        0.0968
      6 C          58.7791   93.8190    0.3445 C.3     1  UNL1        0.0431
      7 C          60.0707   94.5804    0.3046 C.3     1  UNL1        0.0968
      8 N          61.0419   94.7159   -0.8306 N.am    1  UNL1       -0.2622
      9 C          62.2540   95.5548   -0.5535 C.2     1  UNL1        0.3073
     10 O          62.4322   96.1940    0.7918 O.2     1  UNL1       -0.2523
     11 N          63.2880   95.7547   -1.6217 N.am    1  UNL1       -0.2604
     12 C          63.1098   95.1155   -2.9669 C.3     1  UNL1        0.1203
     13 C          64.1438   95.3154   -4.0350 C.3     1  UNL1        0.1723
     14 S          65.3559   96.1543   -3.7579 S.O2    1  UNL1       -0.0066
     15 O          66.6640   96.8560   -3.9742 O.2     1  UNL1       -0.1729
     16 O          65.6320   95.7589   -5.1784 O.2     1  UNL1       -0.1729
     17 C          65.5341   96.7935   -2.4127 C.3     1  UNL1        0.1723
     18 C          64.5002   96.5937   -1.3445 C.3     1  UNL1        0.1203
     19 C          60.9611   94.1234   -2.2062 C.3     1  UNL1        0.1164
     20 C          59.8892   93.2490   -2.7864 C.3     1  UNL1        0.1164
     21 H          56.2119   91.5422   -1.5070 H       1  UNL1        0.1579
     22 C          54.1388   89.7106   -5.0718 C.ar    1  UNL1        0.1549
     23 C          54.9066   90.8889   -4.5500 C.ar    1  UNL1        0.0734
     24 C          55.5980   90.4691   -3.2868 C.ar    1  UNL1        0.1771
     25 N          55.2576   89.0314   -3.0279 N.ar    1  UNL1       -0.0621
     26 O          54.3558   88.5627   -4.1310 O.2     1  UNL1       -0.3565
     27 C          54.3976   90.3788   -7.0685 C.3     1  UNL1        0.0076
     28 C          53.3011   89.6849   -6.3159 C.3     1  UNL1        0.0539
     29 C          52.2047   88.9910   -5.5633 C.3     1  UNL1        0.0076
     30 C          52.4635   89.6591   -7.5599 C.3     1  UNL1        0.0076
@<TRIPOS>BOND
     1    27    28    1
     2    28    29    1
     3    28    30    1
     4    28    22    1
     5    22    23   ar
     6    23    24   ar
     7    24     1    1
     8     1     2   am
     9     2     3    2
    10     2     4   am
    11     4     5    1
    12     5     6    1
    13     6     7    1
    14     7     8    1
    15     8     9   am
    16     9    10    2
    17     9    11   am
    18    11    12    1
    19    12    13    1
    20    13    14    1
    21    14    15    2
    22    14    16    2
    23    14    17    1
    24    17    18    1
    25     8    19    1
    26    19    20    1
    27    24    25   ar
    28    25    26   ar
    29    26    22   ar
    30    20     4    1
    31    18    11    1
    32     1    21    1
@<TRIPOS>MOLECULE
*****
 30 32 0 0 0
SMALL
GASTEIGER

@<TRIPOS>ATOM
      1 N          60.7158   90.8300    5.3394 N.am    1  UNL1       -0.2508
      2 C          59.7974   91.4854    4.3510 C.2     1  UNL1        0.3089
      3 O          58.3114   91.3466    4.5016 O.2     1  UNL1       -0.2522
      4 N          60.3648   92.2795    3.2120 N.am    1  UNL1       -0.2621
      5 C          61.8618   92.3554    3.1537 C.3     1  UNL1        0.0968
      6 C          62.7240   93.0633    2.1509 C.3     1  UNL1        0.0431
      7 C          62.3022   93.8701    0.9589 C.3     1  UNL1        0.0968
      8 N          60.9140   94.1684    0.4751 N.am    1  UNL1       -0.2622
      9 C          60.8230   95.0133   -0.7609 C.2     1  UNL1        0.3073
     10 O          62.0738   95.5014   -1.4295 O.2     1  UNL1       -0.2523
     11 N          59.4810   95.3700   -1.3284 N.am    1  UNL1       -0.2604
     12 C          58.2302   94.8819   -0.6598 C.3     1  UNL1        0.1203
     13 C          56.8883   95.2387   -1.2274 C.3     1  UNL1        0.1723
     14 S          56.7973   96.0835   -2.4634 S.O2    1  UNL1       -0.0066
     15 O          56.1997   96.8516   -3.6050 O.2     1  UNL1       -0.1729
     16 O          55.3388   95.8621   -2.1913 O.2     1  UNL1       -0.1729
     17 C          58.0482   96.5717   -3.1320 C.3     1  UNL1        0.1723
     18 C          59.3901   96.2150   -2.5645 C.3     1  UNL1        0.1203
     19 C          59.6048   93.7334    1.0640 C.3     1  UNL1        0.1164
     20 C          59.3604   92.8928    2.2821 C.3     1  UNL1        0.1164
     21 H          61.6911   90.9211    5.2405 H       1  UNL1        0.1579
     22 C          59.8300   89.0537    8.6750 C.ar    1  UNL1        0.1549
     23 C          60.7127   89.9574    7.8660 C.ar    1  UNL1        0.0734
     24 C          60.1483   90.0358    6.4784 C.ar    1  UNL1        0.1771
     25 N          58.9169   89.1807    6.4298 N.ar    1  UNL1       -0.0621
     26 O          58.7202   88.5738    7.7873 O.2     1  UNL1       -0.3565
     27 C          60.1554   87.2480    9.7396 C.3     1  UNL1        0.0076
     28 C          60.0232   88.6934   10.1182 C.3     1  UNL1        0.0539
     29 C          59.8911   90.1388   10.4968 C.3     1  UNL1        0.0076
     30 C          60.2165   88.3330   11.5614 C.3     1  UNL1        0.0076
@<TRIPOS>BOND
     1    27    28    1
     2    28    29    1
     3    28    30    1
     4    28    22    1
     5    22    23   ar
     6    23    24   ar
     7    24     1    1
     8     1     2   am
     9     2     3    2
    10     2     4   am
    11     4     5    1
    12     5     6    1
    13     6     7    1
    14     7     8    1
    15     8     9   am
    16     9    10    2
    17     9    11   am
    18    11    12    1
    19    12    13    1
    20    13    14    1
    21    14    15    2
    22    14    16    2
    23    14    17    1
    24    17    18    1
    25     8    19    1
    26    19    20    1
    27    24    25   ar
    28    25    26   ar
    29    26    22   ar
    30    20     4    1
    31    18    11    1
    32     1    21    1
