@<TRIPOS>MOLECULE
*****
 28 31 0 0 0
SMALL
GASTEIGER

@<TRIPOS>ATOM
      1 C          63.9320   87.0336   14.0608 C.3     1  UNL1        0.0795
      2 C          64.1293   88.5202   14.0264 C.3     1  UNL1        0.0178
      3 C          63.6379   89.3150   12.8531 C.3     1  UNL1        0.0029
      4 C          62.9493   88.6234   11.7141 C.3     1  UNL1        0.0178
      5 C          62.7520   87.1369   11.7485 C.3     1  UNL1        0.0799
      6 N          63.2434   86.3420   12.9218 N.3     1  UNL1       -0.1583
      7 C          62.0633   86.4451   10.6094 C.3     1  UNL1        0.0240
      8 C          61.8406   85.5215    9.4487 C.3     1  UNL1        0.0019
      9 C          63.1658   85.5371   10.1512 C.3     1  UNL1        0.0019
     10 C          60.7216   87.1129   10.6722 C.3     1  UNL1        0.0894
     11 C          60.0240   87.5148    9.4065 C.ar    1  UNL1        0.2363
     12 N          60.3082   88.7442    8.5952 N.ar    1  UNL1       -0.1949
     13 C          59.3797   88.7471    7.4173 C.ar    1  UNL1        0.1809
     14 C          59.3197   89.7937    6.3445 C.3     1  UNL1        0.0773
     15 N          58.5215   87.5196    7.5005 N.ar    1  UNL1       -0.0606
     16 O          58.9198   86.7580    8.7299 O.2     1  UNL1       -0.3374
     17 S          63.0460   84.8553   12.9561 S.O2    1  UNL1        0.0632
     18 O          61.6611   85.0517   13.4977 O.2     1  UNL1       -0.1528
     19 O          64.2125   84.3602   12.4906 O.2     1  UNL1       -0.1528
     20 C          62.8487   83.3688   12.9904 C.ar    1  UNL1        0.1222
     21 C          62.2842   82.7153   14.2169 C.ar    1  UNL1        0.0208
     22 C          62.0868   81.2287   14.2513 C.ar    1  UNL1        0.0128
     23 C          62.4540   80.3957   13.0591 C.ar    1  UNL1        0.0578
     24 CL         62.2566   78.9091   13.0934 Cl      1  UNL1       -0.0822
     25 C          63.0185   81.0491   11.8326 C.ar    1  UNL1        0.0128
     26 C          63.2158   82.5357   11.7983 C.ar    1  UNL1        0.0208
     27 C          63.5420   86.0477   16.4326 C.3     1  UNL1        0.0015
     28 C          64.4234   86.2387   15.2341 C.3     1  UNL1        0.0177
@<TRIPOS>BOND
     1    27    28    1
     2     1    28    1
     3     1     2    1
     4     2     3    1
     5     3     4    1
     6     4     5    1
     7     5     7    1
     8     7    10    1
     9    10    11    1
    10    11    12   ar
    11    12    13   ar
    12    13    14    1
    13    13    15   ar
    14    15    16   ar
    15     7     8    1
    16     8     9    1
    17     5     6    1
    18     6    17    1
    19    17    18    2
    20    17    19    2
    21    17    20    1
    22    20    21   ar
    23    21    22   ar
    24    22    23   ar
    25    23    24    1
    26    23    25   ar
    27    25    26   ar
    28     6     1    1
    29    26    20   ar
    30     9     7    1
    31    16    11   ar
@<TRIPOS>MOLECULE
*****
 28 31 0 0 0
SMALL
GASTEIGER

@<TRIPOS>ATOM
      1 C          59.9593   88.7820    9.0750 C.3     1  UNL1        0.0795
      2 C          59.0462   88.2179    8.0271 C.3     1  UNL1        0.0178
      3 C          59.2268   86.8051    7.5567 C.3     1  UNL1        0.0029
      4 C          60.3205   85.9563    8.1341 C.3     1  UNL1        0.0178
      5 C          61.2335   86.5204    9.1820 C.3     1  UNL1        0.0799
      6 N          61.0529   87.9332    9.6525 N.3     1  UNL1       -0.1583
      7 C          62.3273   85.6716    9.7595 C.3     1  UNL1        0.0240
      8 C          63.6133   84.9061    9.8602 C.3     1  UNL1        0.0019
      9 C          63.2610   85.6165    8.5868 C.3     1  UNL1        0.0019
     10 C          61.7733   85.4321   11.1328 C.3     1  UNL1        0.0894
     11 C          62.4973   84.5283   12.0863 C.ar    1  UNL1        0.2363
     12 N          62.4690   83.0286   12.0735 N.ar    1  UNL1       -0.1949
     13 C          63.3309   82.5391   13.1993 C.ar    1  UNL1        0.1809
     14 C          63.5868   81.1044   13.5542 C.3     1  UNL1        0.0773
     15 N          63.8919   83.7362   13.9079 N.ar    1  UNL1       -0.0606
     16 O          63.3767   84.9657   13.2201 O.2     1  UNL1       -0.3374
     17 S          61.9660   88.4973   10.7004 S.O2    1  UNL1        0.0632
     18 O          62.8681   89.0307    9.6273 O.2     1  UNL1       -0.1528
     19 O          61.3771   88.1543   11.8658 O.2     1  UNL1       -0.1528
     20 C          62.8791   89.0613   11.7483 C.ar    1  UNL1        0.1222
     21 C          63.2818   90.5053   11.6938 C.ar    1  UNL1        0.0208
     22 C          64.1949   91.0693   12.7416 C.ar    1  UNL1        0.0128
     23 C          64.7054   90.1895   13.8440 C.ar    1  UNL1        0.0578
     24 CL         65.6185   90.7536   14.8919 Cl      1  UNL1       -0.0822
     25 C          64.3027   88.7456   13.8986 C.ar    1  UNL1        0.0128
     26 C          63.3896   88.1815   12.8507 C.ar    1  UNL1        0.0208
     27 C          59.4290   90.4694   10.9780 C.3     1  UNL1        0.0015
     28 C          59.7787   90.1948    9.5455 C.3     1  UNL1        0.0177
@<TRIPOS>BOND
     1    27    28    1
     2     1    28    1
     3     1     2    1
     4     2     3    1
     5     3     4    1
     6     4     5    1
     7     5     7    1
     8     7    10    1
     9    10    11    1
    10    11    12   ar
    11    12    13   ar
    12    13    14    1
    13    13    15   ar
    14    15    16   ar
    15     7     8    1
    16     8     9    1
    17     5     6    1
    18     6    17    1
    19    17    18    2
    20    17    19    2
    21    17    20    1
    22    20    21   ar
    23    21    22   ar
    24    22    23   ar
    25    23    24    1
    26    23    25   ar
    27    25    26   ar
    28     6     1    1
    29    26    20   ar
    30     9     7    1
    31    16    11   ar
@<TRIPOS>MOLECULE
*****
 28 31 0 0 0
SMALL
GASTEIGER

@<TRIPOS>ATOM
      1 C          60.3243   86.8618    8.0041 C.3     1  UNL1        0.0795
      2 C          59.5541   87.6161    6.9611 C.3     1  UNL1        0.0178
      3 C          59.2980   89.0840    7.1331 C.3     1  UNL1        0.0029
      4 C          59.8120   89.7976    8.3482 C.3     1  UNL1        0.0178
      5 C          60.5821   89.0434    9.3912 C.3     1  UNL1        0.0799
      6 N          60.8383   87.5755    9.2191 N.3     1  UNL1       -0.1583
      7 C          61.0962   89.7570   10.6064 C.3     1  UNL1        0.0240
      8 C          61.1142   90.3974   11.9627 C.3     1  UNL1        0.0019
      9 C          59.8463   89.7939   11.4350 C.3     1  UNL1        0.0019
     10 C          62.5245   89.9680   10.1997 C.3     1  UNL1        0.0894
     11 C          63.4696   90.6797   11.1219 C.ar    1  UNL1        0.2363
     12 N          64.2376   91.9286   10.8051 N.ar    1  UNL1       -0.1949
     13 C          65.0552   92.2882   12.0101 C.ar    1  UNL1        0.1809
     14 C          65.9742   93.4674   12.1322 C.3     1  UNL1        0.0773
     15 N          64.7924   91.2615   13.0717 N.ar    1  UNL1       -0.0606
     16 O          63.8124   90.2674   12.5227 O.2     1  UNL1       -0.3374
     17 S          61.6085   86.8212   10.2622 S.O2    1  UNL1        0.0632
     18 O          62.8140   86.8179    9.3696 O.2     1  UNL1       -0.1528
     19 O          60.7235   86.6599   11.2688 O.2     1  UNL1       -0.1528
     20 C          62.3787   86.0670   11.3052 C.ar    1  UNL1        0.1222
     21 C          63.0050   86.8022   12.4530 C.ar    1  UNL1        0.0208
     22 C          63.7752   86.0480   13.4960 C.ar    1  UNL1        0.0128
     23 C          63.9192   84.5586   13.3913 C.ar    1  UNL1        0.0578
     24 CL         64.6894   83.8044   14.4343 Cl      1  UNL1       -0.0822
     25 C          63.2929   83.8234   12.2436 C.ar    1  UNL1        0.0128
     26 C          62.5227   84.5776   11.2005 C.ar    1  UNL1        0.0208
     27 C          61.5097   84.9158    6.7559 C.3     1  UNL1        0.0015
     28 C          60.5805   85.3939    7.8320 C.3     1  UNL1        0.0177
@<TRIPOS>BOND
     1    27    28    1
     2     1    28    1
     3     1     2    1
     4     2     3    1
     5     3     4    1
     6     4     5    1
     7     5     7    1
     8     7    10    1
     9    10    11    1
    10    11    12   ar
    11    12    13   ar
    12    13    14    1
    13    13    15   ar
    14    15    16   ar
    15     7     8    1
    16     8     9    1
    17     5     6    1
    18     6    17    1
    19    17    18    2
    20    17    19    2
    21    17    20    1
    22    20    21   ar
    23    21    22   ar
    24    22    23   ar
    25    23    24    1
    26    23    25   ar
    27    25    26   ar
    28     6     1    1
    29    26    20   ar
    30     9     7    1
    31    16    11   ar
@<TRIPOS>MOLECULE
*****
 28 31 0 0 0
SMALL
GASTEIGER

@<TRIPOS>ATOM
      1 C          65.5772   91.8849   12.8155 C.3     1  UNL1        0.0795
      2 C          65.8969   92.8432   11.7067 C.3     1  UNL1        0.0178
      3 C          65.0291   92.8923   10.4842 C.3     1  UNL1        0.0029
      4 C          63.8415   91.9832   10.3705 C.3     1  UNL1        0.0178
      5 C          63.5217   91.0249   11.4793 C.3     1  UNL1        0.0799
      6 N          64.3895   90.9758   12.7017 N.3     1  UNL1       -0.1583
      7 C          62.3340   90.1157   11.3656 C.3     1  UNL1        0.0240
      8 C          60.9668   89.5463   11.6035 C.3     1  UNL1        0.0019
      9 C          61.4045   90.7785   12.3386 C.3     1  UNL1        0.0019
     10 C          62.8512   89.1372   10.3531 C.3     1  UNL1        0.0894
     11 C          61.9511   88.0610    9.8224 C.ar    1  UNL1        0.2363
     12 N          60.8103   88.2567    8.8682 N.ar    1  UNL1       -0.1949
     13 C          60.1879   86.9169    8.6087 C.ar    1  UNL1        0.1809
     14 C          59.0154   86.6481    7.7127 C.3     1  UNL1        0.0773
     15 N          60.9439   85.8931    9.4026 N.ar    1  UNL1       -0.0606
     16 O          62.0336   86.6002   10.1527 O.2     1  UNL1       -0.3374
     17 S          64.0697   90.0174   13.8105 S.O2    1  UNL1        0.0632
     18 O          63.6198   91.1617   14.6697 O.2     1  UNL1       -0.1528
     19 O          64.3930   88.8095   13.3017 O.2     1  UNL1       -0.1528
     20 C          63.7499   89.0592   14.9193 C.ar    1  UNL1        0.1222
     21 C          64.0877   87.6048   14.7745 C.ar    1  UNL1        0.0208
     22 C          63.7679   86.6466   15.8832 C.ar    1  UNL1        0.0128
     23 C          63.1102   87.1425   17.1369 C.ar    1  UNL1        0.0578
     24 CL         62.7904   86.1843   18.2456 Cl      1  UNL1       -0.0822
     25 C          62.7724   88.5968   17.2817 C.ar    1  UNL1        0.0128
     26 C          63.0923   89.5551   16.1729 C.ar    1  UNL1        0.0208
     27 C          67.9353   91.9413   13.9045 C.3     1  UNL1        0.0015
     28 C          66.4450   91.8358   14.0379 C.3     1  UNL1        0.0177
@<TRIPOS>BOND
     1    27    28    1
     2     1    28    1
     3     1     2    1
     4     2     3    1
     5     3     4    1
     6     4     5    1
     7     5     7    1
     8     7    10    1
     9    10    11    1
    10    11    12   ar
    11    12    13   ar
    12    13    14    1
    13    13    15   ar
    14    15    16   ar
    15     7     8    1
    16     8     9    1
    17     5     6    1
    18     6    17    1
    19    17    18    2
    20    17    19    2
    21    17    20    1
    22    20    21   ar
    23    21    22   ar
    24    22    23   ar
    25    23    24    1
    26    23    25   ar
    27    25    26   ar
    28     6     1    1
    29    26    20   ar
    30     9     7    1
    31    16    11   ar
@<TRIPOS>MOLECULE
*****
 28 31 0 0 0
SMALL
GASTEIGER

@<TRIPOS>ATOM
      1 C          63.0753   85.6704   12.5357 C.3     1  UNL1        0.0795
      2 C          63.9155   85.2488   13.7046 C.3     1  UNL1        0.0178
      3 C          64.5511   86.2846   14.5838 C.3     1  UNL1        0.0029
      4 C          64.3464   87.7420   14.2943 C.3     1  UNL1        0.0178
      5 C          63.5062   88.1637   13.1255 C.3     1  UNL1        0.0799
      6 N          62.8706   87.1278   12.2462 N.3     1  UNL1       -0.1583
      7 C          63.3015   89.6212   12.8359 C.3     1  UNL1        0.0240
      8 C          63.2592   90.9156   12.0790 C.3     1  UNL1        0.0019
      9 C          63.6982   89.6577   11.3897 C.3     1  UNL1        0.0019
     10 C          62.8337   90.0908   14.1814 C.3     1  UNL1        0.0894
     11 C          63.7235   90.9547   15.0253 C.ar    1  UNL1        0.2363
     12 N          65.1470   91.3168   14.7209 N.ar    1  UNL1       -0.1949
     13 C          65.6493   92.1940   15.8291 C.ar    1  UNL1        0.1809
     14 C          67.0233   92.7871   15.9303 C.3     1  UNL1        0.0773
     15 N          64.5362   92.3741   16.8184 N.ar    1  UNL1       -0.0606
     16 O          63.3460   91.6081   16.3216 O.2     1  UNL1       -0.3374
     17 S          62.0304   87.5495   11.0773 S.O2    1  UNL1        0.0632
     18 O          60.8819   87.8244   12.0022 O.2     1  UNL1       -0.1528
     19 O          62.8504   87.4013   10.0152 O.2     1  UNL1       -0.1528
     20 C          61.1901   87.9712    9.9085 C.ar    1  UNL1        0.1222
     21 C          60.6046   86.9366    8.9936 C.ar    1  UNL1        0.0208
     22 C          59.7644   87.3583    7.8248 C.ar    1  UNL1        0.0128
     23 C          59.5095   88.8145    7.5709 C.ar    1  UNL1        0.0578
     24 CL         58.6693   89.2362    6.4021 Cl      1  UNL1       -0.0822
     25 C          60.0949   89.8491    8.4857 C.ar    1  UNL1        0.0128
     26 C          60.9352   89.4274    9.6546 C.ar    1  UNL1        0.0208
     27 C          63.2979   83.7263   10.8267 C.3     1  UNL1        0.0015
     28 C          62.4398   84.6346   11.6565 C.3     1  UNL1        0.0177
@<TRIPOS>BOND
     1    27    28    1
     2     1    28    1
     3     1     2    1
     4     2     3    1
     5     3     4    1
     6     4     5    1
     7     5     7    1
     8     7    10    1
     9    10    11    1
    10    11    12   ar
    11    12    13   ar
    12    13    14    1
    13    13    15   ar
    14    15    16   ar
    15     7     8    1
    16     8     9    1
    17     5     6    1
    18     6    17    1
    19    17    18    2
    20    17    19    2
    21    17    20    1
    22    20    21   ar
    23    21    22   ar
    24    22    23   ar
    25    23    24    1
    26    23    25   ar
    27    25    26   ar
    28     6     1    1
    29    26    20   ar
    30     9     7    1
    31    16    11   ar
@<TRIPOS>MOLECULE
*****
 28 31 0 0 0
SMALL
GASTEIGER

@<TRIPOS>ATOM
      1 C          64.0489   86.8078   14.2422 C.3     1  UNL1        0.0795
      2 C          64.2831   88.2893   14.2439 C.3     1  UNL1        0.0178
      3 C          63.8060   89.1254   13.0934 C.3     1  UNL1        0.0029
      4 C          63.0949   88.4799   11.9413 C.3     1  UNL1        0.0178
      5 C          62.8607   86.9983   11.9396 C.3     1  UNL1        0.0799
      6 N          63.3377   86.1622   13.0900 N.3     1  UNL1       -0.1583
      7 C          62.1495   86.3527   10.7874 C.3     1  UNL1        0.0240
      8 C          61.9275   85.5601    9.5334 C.3     1  UNL1        0.0019
      9 C          63.3113   85.7052   10.0939 C.3     1  UNL1        0.0019
     10 C          60.7407   86.7760   11.0809 C.3     1  UNL1        0.0894
     11 C          60.3182   88.1948   10.8391 C.ar    1  UNL1        0.2363
     12 N          59.5718   89.0689   11.8030 N.ar    1  UNL1       -0.1949
     13 C          59.3601   90.4029   11.1507 C.ar    1  UNL1        0.1809
     14 C          58.6565   91.5799   11.7586 C.3     1  UNL1        0.0773
     15 N          59.9757   90.3534    9.7837 N.ar    1  UNL1       -0.0606
     16 O          60.5678   88.9886    9.5912 O.2     1  UNL1       -0.3374
     17 S          63.1035   84.6806   13.0883 S.O2    1  UNL1        0.0632
     18 O          61.7892   84.8876   13.7808 O.2     1  UNL1       -0.1528
     19 O          64.2003   84.1772   12.4831 O.2     1  UNL1       -0.1528
     20 C          62.8693   83.1990   13.0865 C.ar    1  UNL1        0.1222
     21 C          63.2383   82.3827   11.8833 C.ar    1  UNL1        0.0208
     22 C          63.0040   80.9012   11.8816 C.ar    1  UNL1        0.0128
     23 C          62.4008   80.2358   13.0830 C.ar    1  UNL1        0.0578
     24 CL         62.1666   78.7542   13.0813 Cl      1  UNL1       -0.0822
     25 C          62.0319   81.0520   14.2862 C.ar    1  UNL1        0.0128
     26 C          62.2661   82.5336   14.2880 C.ar    1  UNL1        0.0208
     27 C          63.6589   85.7987   16.6042 C.3     1  UNL1        0.0015
     28 C          64.5259   85.9717   15.3926 C.3     1  UNL1        0.0177
@<TRIPOS>BOND
     1    27    28    1
     2     1    28    1
     3     1     2    1
     4     2     3    1
     5     3     4    1
     6     4     5    1
     7     5     7    1
     8     7    10    1
     9    10    11    1
    10    11    12   ar
    11    12    13   ar
    12    13    14    1
    13    13    15   ar
    14    15    16   ar
    15     7     8    1
    16     8     9    1
    17     5     6    1
    18     6    17    1
    19    17    18    2
    20    17    19    2
    21    17    20    1
    22    20    21   ar
    23    21    22   ar
    24    22    23   ar
    25    23    24    1
    26    23    25   ar
    27    25    26   ar
    28     6     1    1
    29    26    20   ar
    30     9     7    1
    31    16    11   ar
@<TRIPOS>MOLECULE
*****
 28 31 0 0 0
SMALL
GASTEIGER

@<TRIPOS>ATOM
      1 C          63.5149   84.5208    9.7670 C.3     1  UNL1        0.0795
      2 C          64.3114   83.2546    9.6558 C.3     1  UNL1        0.0178
      3 C          64.6860   82.4932   10.8926 C.3     1  UNL1        0.0029
      4 C          64.2643   82.9979   12.2407 C.3     1  UNL1        0.0178
      5 C          63.4679   84.2641   12.3519 C.3     1  UNL1        0.0799
      6 N          63.0932   85.0255   11.1151 N.3     1  UNL1       -0.1583
      7 C          63.0461   84.7689   13.7000 C.3     1  UNL1        0.0240
      8 C          62.2330   84.9447   14.9482 C.3     1  UNL1        0.0019
      9 C          61.7726   83.9969   13.8805 C.3     1  UNL1        0.0019
     10 C          64.1730   85.7160   13.9877 C.3     1  UNL1        0.0894
     11 C          63.9229   86.9569   14.7926 C.ar    1  UNL1        0.2363
     12 N          64.1652   88.3660   14.3389 N.ar    1  UNL1       -0.1949
     13 C          63.7786   89.2864   15.4583 C.ar    1  UNL1        0.1809
     14 C          63.8591   90.7840   15.4361 C.3     1  UNL1        0.0773
     15 N          63.2974   88.4462   16.6040 N.ar    1  UNL1       -0.0606
     16 O          63.3866   87.0064   16.1925 O.2     1  UNL1       -0.3374
     17 S          62.2967   86.2918   11.2264 S.O2    1  UNL1        0.0632
     18 O          61.0487   85.5376   10.8751 O.2     1  UNL1       -0.1528
     19 O          63.2132   87.2261   11.5574 O.2     1  UNL1       -0.1528
     20 C          61.5003   87.5580   11.3376 C.ar    1  UNL1        0.1222
     21 C          62.1994   88.8672   11.5551 C.ar    1  UNL1        0.0208
     22 C          61.4030   90.1333   11.6663 C.ar    1  UNL1        0.0128
     23 C          59.9073   90.0904   11.5602 C.ar    1  UNL1        0.0578
     24 CL         59.1109   91.3565   11.6714 Cl      1  UNL1       -0.0822
     25 C          59.2082   88.7813   11.3427 C.ar    1  UNL1        0.0128
     26 C          60.0046   87.5150   11.2315 C.ar    1  UNL1        0.0208
     27 C          62.7196   84.5445    7.2938 C.3     1  UNL1        0.0015
     28 C          63.1403   85.2823    8.5302 C.3     1  UNL1        0.0177
@<TRIPOS>BOND
     1    27    28    1
     2     1    28    1
     3     1     2    1
     4     2     3    1
     5     3     4    1
     6     4     5    1
     7     5     7    1
     8     7    10    1
     9    10    11    1
    10    11    12   ar
    11    12    13   ar
    12    13    14    1
    13    13    15   ar
    14    15    16   ar
    15     7     8    1
    16     8     9    1
    17     5     6    1
    18     6    17    1
    19    17    18    2
    20    17    19    2
    21    17    20    1
    22    20    21   ar
    23    21    22   ar
    24    22    23   ar
    25    23    24    1
    26    23    25   ar
    27    25    26   ar
    28     6     1    1
    29    26    20   ar
    30     9     7    1
    31    16    11   ar
@<TRIPOS>MOLECULE
*****
 28 31 0 0 0
SMALL
GASTEIGER

@<TRIPOS>ATOM
      1 C          59.3371   95.6374   -4.3026 C.3     1  UNL1        0.0795
      2 C          58.6868   96.1114   -5.5685 C.3     1  UNL1        0.0178
      3 C          57.3063   95.6440   -5.9230 C.3     1  UNL1        0.0029
      4 C          56.5760   94.7027   -5.0117 C.3     1  UNL1        0.0178
      5 C          57.2263   94.2287   -3.7459 C.3     1  UNL1        0.0799
      6 N          58.6068   94.6961   -3.3913 N.3     1  UNL1       -0.1583
      7 C          56.4960   93.2873   -2.8345 C.3     1  UNL1        0.0240
      8 C          55.6038   92.8021   -1.7306 C.3     1  UNL1        0.0019
      9 C          55.7761   94.2739   -1.9635 C.3     1  UNL1        0.0019
     10 C          56.9623   91.9739   -3.3889 C.3     1  UNL1        0.0894
     11 C          55.9874   91.0578   -4.0675 C.ar    1  UNL1        0.2363
     12 N          55.4524   91.2149   -5.4600 N.ar    1  UNL1       -0.1949
     13 C          54.5108   90.0780   -5.7259 C.ar    1  UNL1        0.1809
     14 C          53.7497   89.8422   -6.9967 C.3     1  UNL1        0.0773
     15 N          54.4639   89.2181   -4.4976 N.ar    1  UNL1       -0.0606
     16 O          55.3765   89.8237   -3.4727 O.2     1  UNL1       -0.3374
     17 S          59.2570   94.2221   -2.1253 S.O2    1  UNL1        0.0632
     18 O          58.6954   95.4051   -1.3940 O.2     1  UNL1       -0.1528
     19 O          59.8890   93.0857   -2.4884 O.2     1  UNL1       -0.1528
     20 C          59.9072   93.7481   -0.8594 C.ar    1  UNL1        0.1222
     21 C          59.0842   93.5552    0.3797 C.ar    1  UNL1        0.0208
     22 C          59.7344   93.0812    1.6457 C.ar    1  UNL1        0.0128
     23 C          61.2076   92.8002    1.6725 C.ar    1  UNL1        0.0578
     24 CL         61.8578   92.3262    2.9384 Cl      1  UNL1       -0.0822
     25 C          62.0306   92.9931    0.4334 C.ar    1  UNL1        0.0128
     26 C          61.3804   93.4671   -0.8326 C.ar    1  UNL1        0.0208
     27 C          61.9153   95.4246   -4.5420 C.3     1  UNL1        0.0015
     28 C          60.7176   96.1048   -3.9481 C.3     1  UNL1        0.0177
@<TRIPOS>BOND
     1    27    28    1
     2     1    28    1
     3     1     2    1
     4     2     3    1
     5     3     4    1
     6     4     5    1
     7     5     7    1
     8     7    10    1
     9    10    11    1
    10    11    12   ar
    11    12    13   ar
    12    13    14    1
    13    13    15   ar
    14    15    16   ar
    15     7     8    1
    16     8     9    1
    17     5     6    1
    18     6    17    1
    19    17    18    2
    20    17    19    2
    21    17    20    1
    22    20    21   ar
    23    21    22   ar
    24    22    23   ar
    25    23    24    1
    26    23    25   ar
    27    25    26   ar
    28     6     1    1
    29    26    20   ar
    30     9     7    1
    31    16    11   ar
@<TRIPOS>MOLECULE
*****
 28 31 0 0 0
SMALL
GASTEIGER

@<TRIPOS>ATOM
      1 C          62.1975   87.0890   10.8741 C.3     1  UNL1        0.0795
      2 C          62.2746   88.5513   10.5488 C.3     1  UNL1        0.0178
      3 C          62.9438   89.4973   11.5013 C.3     1  UNL1        0.0029
      4 C          63.5358   88.9810   12.7792 C.3     1  UNL1        0.0178
      5 C          63.4586   87.5188   13.1045 C.3     1  UNL1        0.0799
      6 N          62.7895   86.5728   12.1519 N.3     1  UNL1       -0.1583
      7 C          64.0506   87.0024   14.3824 C.3     1  UNL1        0.0240
      8 C          64.9000   86.1919   15.3160 C.3     1  UNL1        0.0019
      9 C          64.9973   85.9757   13.8348 C.3     1  UNL1        0.0019
     10 C          63.3096   87.8499   15.3737 C.3     1  UNL1        0.0894
     11 C          63.7155   89.2775   15.5915 C.ar    1  UNL1        0.2363
     12 N          64.9250   89.9486   15.0112 N.ar    1  UNL1       -0.1949
     13 C          64.9401   91.3704   15.4888 C.ar    1  UNL1        0.1809
     14 C          65.9739   92.4032   15.1505 C.3     1  UNL1        0.0773
     15 N          63.7399   91.5781   16.3643 N.ar    1  UNL1       -0.0606
     16 O          62.9830   90.2845   16.4277 O.2     1  UNL1       -0.3374
     17 S          62.7124   85.1105   12.4773 S.O2    1  UNL1        0.0632
     18 O          63.6907   84.8146   11.3794 O.2     1  UNL1       -0.1528
     19 O          61.8412   85.0504   13.5069 O.2     1  UNL1       -0.1528
     20 C          62.6353   83.6482   12.8026 C.ar    1  UNL1        0.1222
     21 C          62.9330   82.6277   11.7443 C.ar    1  UNL1        0.0208
     22 C          62.8559   81.1655   12.0696 C.ar    1  UNL1        0.0128
     23 C          62.4811   80.7237   13.4532 C.ar    1  UNL1        0.0578
     24 CL         62.4040   79.2614   13.7785 Cl      1  UNL1       -0.0822
     25 C          62.1833   81.7441   14.5115 C.ar    1  UNL1        0.0128
     26 C          62.2604   83.2064   14.1862 C.ar    1  UNL1        0.0208
     27 C          62.0926   85.9390    8.5468 C.3     1  UNL1        0.0015
     28 C          61.5283   86.1431    9.9215 C.3     1  UNL1        0.0177
@<TRIPOS>BOND
     1    27    28    1
     2     1    28    1
     3     1     2    1
     4     2     3    1
     5     3     4    1
     6     4     5    1
     7     5     7    1
     8     7    10    1
     9    10    11    1
    10    11    12   ar
    11    12    13   ar
    12    13    14    1
    13    13    15   ar
    14    15    16   ar
    15     7     8    1
    16     8     9    1
    17     5     6    1
    18     6    17    1
    19    17    18    2
    20    17    19    2
    21    17    20    1
    22    20    21   ar
    23    21    22   ar
    24    22    23   ar
    25    23    24    1
    26    23    25   ar
    27    25    26   ar
    28     6     1    1
    29    26    20   ar
    30     9     7    1
    31    16    11   ar
