@<TRIPOS>MOLECULE
*****
 29 31 0 0 0
SMALL
GASTEIGER

@<TRIPOS>ATOM
      1 C          64.3450   89.5844   14.8083 C.ar    1  UNL1        0.0193
      2 C          63.6291   89.8835   16.0920 C.ar    1  UNL1        0.1002
      3 N          62.9759   88.7745   16.8624 N.ar    1  UNL1       -0.2296
      4 C          63.0387   87.3665   16.3491 C.ar    1  UNL1        0.1253
      5 N          62.3855   86.2575   17.1196 N.pl3   1  UNL1       -0.3426
      6 C          63.7546   87.0674   15.0654 C.ar    1  UNL1        0.0312
      7 C          64.4078   88.1764   14.2950 C.ar    1  UNL1        0.0043
      8 H          61.9156   86.4538   17.9621 H       1  UNL1        0.1437
      9 H          62.4267   85.3334   16.7827 H       1  UNL1        0.1437
     10 C          63.8175   85.6594   14.5521 C.ar    1  UNL1        0.0027
     11 C          64.3297   84.5610   15.4360 C.ar    1  UNL1        0.0010
     12 C          64.3926   83.1530   14.9227 C.ar    1  UNL1        0.0114
     13 C          63.9431   82.8433   13.5255 C.ar    1  UNL1        0.0577
     14 CL         64.0059   81.4352   13.0123 Cl      1  UNL1       -0.0822
     15 C          63.4308   83.9416   12.6416 C.ar    1  UNL1        0.0114
     16 C          63.3680   85.3497   13.1550 C.ar    1  UNL1        0.0010
     17 C          66.3046   92.9113   12.4970 C.ar    1  UNL1        0.1387
     18 C          66.9291   92.4102   13.7653 C.ar    1  UNL1        0.0369
     19 C          66.2759   91.3012   14.5357 C.ar    1  UNL1        0.0032
     20 C          64.9982   90.6934   14.0378 C.ar    1  UNL1        0.0017
     21 C          64.3737   91.1946   12.7695 C.ar    1  UNL1        0.0032
     22 C          65.0268   92.3035   11.9991 C.ar    1  UNL1        0.0369
     23 O          66.9577   94.0203   11.7265 O.3     1  UNL1       -0.4774
     24 C          66.7121   95.1429    9.9435 C.3     1  UNL1        0.0495
     25 C          67.3255   93.8177   10.2865 C.3     1  UNL1        0.1646
     26 C          67.9388   92.4926   10.6295 C.3     1  UNL1        0.0495
     27 C          67.6932   93.6151    8.8464 C.2     1  UNL1        0.0863
     28 O          67.3053   94.6398    7.8220 O.co2   1  UNL1       -0.5457
     29 O          68.4489   92.3879    8.4309 O.co2   1  UNL1       -0.5457
@<TRIPOS>UNITY_ATOM_ATTR
28 1
charge -1
@<TRIPOS>BOND
     1    24    25    1
     2    25    26    1
     3    25    23    1
     4    23    17    1
     5    17    18   ar
     6    18    19   ar
     7    19    20   ar
     8    20     1    1
     9     1     2   ar
    10     2     3   ar
    11     3     4   ar
    12     4     5    1
    13     4     6   ar
    14     6    10    1
    15    10    11   ar
    16    11    12   ar
    17    12    13   ar
    18    13    14    1
    19    13    15   ar
    20    15    16   ar
    21     6     7   ar
    22    20    21   ar
    23    21    22   ar
    24    25    27    1
    25    27    28   ar
    26    27    29   ar
    27    22    17   ar
    28     7     1   ar
    29    16    10   ar
    30     5     8    1
    31     5     9    1
@<TRIPOS>MOLECULE
*****
 29 31 0 0 0
SMALL
GASTEIGER

@<TRIPOS>ATOM
      1 C          63.8852   87.0702   14.3616 C.ar    1  UNL1        0.0193
      2 C          63.8285   86.7622   15.8285 C.ar    1  UNL1        0.1002
      3 N          63.6412   85.3477   16.2911 N.ar    1  UNL1       -0.2296
      4 C          63.5106   84.2412   15.2868 C.ar    1  UNL1        0.1253
      5 N          63.3233   82.8266   15.7495 N.pl3   1  UNL1       -0.3426
      6 C          63.5673   84.5492   13.8199 C.ar    1  UNL1        0.0312
      7 C          63.7546   85.9637   13.3573 C.ar    1  UNL1        0.0043
      8 H          63.2860   82.6245   16.7123 H       1  UNL1        0.1437
      9 H          63.2376   82.1004   15.0903 H       1  UNL1        0.1437
     10 C          63.4367   83.4427   12.8156 C.ar    1  UNL1        0.0027
     11 C          64.2045   83.5037   11.5284 C.ar    1  UNL1        0.0010
     12 C          64.0739   82.3973   10.5241 C.ar    1  UNL1        0.0114
     13 C          63.1756   81.2297   10.8069 C.ar    1  UNL1        0.0577
     14 CL         63.0451   80.1233    9.8026 Cl      1  UNL1       -0.0822
     15 C          62.4079   81.1687   12.0941 C.ar    1  UNL1        0.0114
     16 C          62.5385   82.2752   13.0985 C.ar    1  UNL1        0.0010
     17 C          64.4472   91.3138   12.9736 C.ar    1  UNL1        0.1387
     18 C          63.5652   90.3814   12.1974 C.ar    1  UNL1        0.0369
     19 C          63.3778   88.9668   12.6600 C.ar    1  UNL1        0.0032
     20 C          64.0725   88.4847   13.8989 C.ar    1  UNL1        0.0017
     21 C          64.9545   89.4171   14.6752 C.ar    1  UNL1        0.0032
     22 C          65.1418   90.8317   14.2125 C.ar    1  UNL1        0.0369
     23 O          64.6345   92.7283   12.5110 O.3     1  UNL1       -0.4774
     24 C          66.4547   93.7126   12.9777 C.3     1  UNL1        0.0495
     25 C          65.8630   93.1084   11.7388 C.3     1  UNL1        0.1646
     26 C          65.2712   92.5042   10.5000 C.3     1  UNL1        0.0495
     27 C          67.0915   93.4885   10.9666 C.2     1  UNL1        0.0863
     28 O          67.2858   94.9062   10.5166 O.co2   1  UNL1       -0.5457
     29 O          68.1257   92.4509   10.6443 O.co2   1  UNL1       -0.5457
@<TRIPOS>UNITY_ATOM_ATTR
28 1
charge -1
@<TRIPOS>BOND
     1    24    25    1
     2    25    26    1
     3    25    23    1
     4    23    17    1
     5    17    18   ar
     6    18    19   ar
     7    19    20   ar
     8    20     1    1
     9     1     2   ar
    10     2     3   ar
    11     3     4   ar
    12     4     5    1
    13     4     6   ar
    14     6    10    1
    15    10    11   ar
    16    11    12   ar
    17    12    13   ar
    18    13    14    1
    19    13    15   ar
    20    15    16   ar
    21     6     7   ar
    22    20    21   ar
    23    21    22   ar
    24    25    27    1
    25    27    28   ar
    26    27    29   ar
    27    22    17   ar
    28     7     1   ar
    29    16    10   ar
    30     5     8    1
    31     5     9    1
@<TRIPOS>MOLECULE
*****
 29 31 0 0 0
SMALL
GASTEIGER

@<TRIPOS>ATOM
      1 C          64.5485   90.3869   14.5410 C.ar    1  UNL1        0.0193
      2 C          63.8497   90.8031   15.8013 C.ar    1  UNL1        0.1002
      3 N          63.1750   89.7745   16.6595 N.ar    1  UNL1       -0.2296
      4 C          63.1991   88.3296   16.2575 C.ar    1  UNL1        0.1253
      5 N          62.5244   87.3009   17.1158 N.pl3   1  UNL1       -0.3426
      6 C          63.8979   87.9133   14.9973 C.ar    1  UNL1        0.0312
      7 C          64.5726   88.9420   14.1390 C.ar    1  UNL1        0.0043
      8 H          62.0657   87.5741   17.9430 H       1  UNL1        0.1437
      9 H          62.5402   86.3526   16.8520 H       1  UNL1        0.1437
     10 C          63.9220   86.4684   14.5952 C.ar    1  UNL1        0.0027
     11 C          64.4742   85.4376   15.5347 C.ar    1  UNL1        0.0010
     12 C          64.4983   83.9927   15.1327 C.ar    1  UNL1        0.0114
     13 C          63.9703   83.5785   13.7911 C.ar    1  UNL1        0.0577
     14 CL         63.9944   82.1336   13.3891 Cl      1  UNL1       -0.0822
     15 C          63.4181   84.6093   12.8516 C.ar    1  UNL1        0.0114
     16 C          63.3940   86.0542   13.2537 C.ar    1  UNL1        0.0010
     17 C          66.5727   93.4728   11.9662 C.ar    1  UNL1        0.1387
     18 C          65.3338   92.7832   11.4766 C.ar    1  UNL1        0.0369
     19 C          64.6591   91.7546   12.3348 C.ar    1  UNL1        0.0032
     20 C          65.2232   91.4155   13.6827 C.ar    1  UNL1        0.0017
     21 C          66.4621   92.1051   14.1723 C.ar    1  UNL1        0.0032
     22 C          67.1368   93.1338   13.3140 C.ar    1  UNL1        0.0369
     23 O          67.2474   94.5015   11.1079 O.3     1  UNL1       -0.4774
     24 C          65.9784   96.1614   11.4743 C.3     1  UNL1        0.0495
     25 C          66.4263   95.4185   10.2506 C.3     1  UNL1        0.1646
     26 C          66.8742   94.6755    9.0270 C.3     1  UNL1        0.0495
     27 C          65.6052   96.3355    9.3933 C.2     1  UNL1        0.0863
     28 O          66.0987   96.7333    8.0339 O.co2   1  UNL1       -0.5457
     29 O          64.2905   96.8546    9.8955 O.co2   1  UNL1       -0.5457
@<TRIPOS>UNITY_ATOM_ATTR
28 1
charge -1
@<TRIPOS>BOND
     1    24    25    1
     2    25    26    1
     3    25    23    1
     4    23    17    1
     5    17    18   ar
     6    18    19   ar
     7    19    20   ar
     8    20     1    1
     9     1     2   ar
    10     2     3   ar
    11     3     4   ar
    12     4     5    1
    13     4     6   ar
    14     6    10    1
    15    10    11   ar
    16    11    12   ar
    17    12    13   ar
    18    13    14    1
    19    13    15   ar
    20    15    16   ar
    21     6     7   ar
    22    20    21   ar
    23    21    22   ar
    24    25    27    1
    25    27    28   ar
    26    27    29   ar
    27    22    17   ar
    28     7     1   ar
    29    16    10   ar
    30     5     8    1
    31     5     9    1
@<TRIPOS>MOLECULE
*****
 29 31 0 0 0
SMALL
GASTEIGER

@<TRIPOS>ATOM
      1 C          63.7608   87.4861   15.5490 C.ar    1  UNL1        0.0193
      2 C          63.1632   88.0055   16.8229 C.ar    1  UNL1        0.1002
      3 N          63.1562   89.4793   17.1018 N.ar    1  UNL1       -0.2296
      4 C          63.7469   90.4338   16.1068 C.ar    1  UNL1        0.1253
      5 N          63.7400   91.9076   16.3857 N.pl3   1  UNL1       -0.3426
      6 C          64.3446   89.9143   14.8328 C.ar    1  UNL1        0.0312
      7 C          64.3515   88.4405   14.5539 C.ar    1  UNL1        0.0043
      8 H          63.3477   92.2485   17.2218 H       1  UNL1        0.1437
      9 H          64.1277   92.5340   15.7326 H       1  UNL1        0.1437
     10 C          64.9353   90.8687   13.8377 C.ar    1  UNL1        0.0027
     11 C          64.1910   91.1930   12.5764 C.ar    1  UNL1        0.0010
     12 C          64.7817   92.1474   11.5813 C.ar    1  UNL1        0.0114
     13 C          66.1167   92.7775   11.8475 C.ar    1  UNL1        0.0577
     14 CL         66.7074   93.7319   10.8524 Cl      1  UNL1       -0.0822
     15 C          66.8610   92.4532   13.1088 C.ar    1  UNL1        0.0114
     16 C          66.2702   91.4988   14.1039 C.ar    1  UNL1        0.0010
     17 C          63.7816   83.0646   14.7123 C.ar    1  UNL1        0.1387
     18 C          64.9582   83.9079   14.3191 C.ar    1  UNL1        0.0369
     19 C          64.9512   85.3817   14.5980 C.ar    1  UNL1        0.0032
     20 C          63.7678   86.0123   15.2701 C.ar    1  UNL1        0.0017
     21 C          62.5912   85.1690   15.6632 C.ar    1  UNL1        0.0032
     22 C          62.5982   83.6952   15.3843 C.ar    1  UNL1        0.0369
     23 O          63.7886   81.5908   14.4334 O.3     1  UNL1       -0.4774
     24 C          62.2541   80.3354   13.6791 C.3     1  UNL1        0.0495
     25 C          63.4058   81.0827   13.0750 C.3     1  UNL1        0.1646
     26 C          64.5575   81.8301   12.4709 C.3     1  UNL1        0.0495
     27 C          63.0230   80.5747   11.7165 C.2     1  UNL1        0.0863
     28 O          63.0892   81.4877   10.5282 O.co2   1  UNL1       -0.5457
     29 O          62.5740   79.1536   11.5463 O.co2   1  UNL1       -0.5457
@<TRIPOS>UNITY_ATOM_ATTR
28 1
charge -1
@<TRIPOS>BOND
     1    24    25    1
     2    25    26    1
     3    25    23    1
     4    23    17    1
     5    17    18   ar
     6    18    19   ar
     7    19    20   ar
     8    20     1    1
     9     1     2   ar
    10     2     3   ar
    11     3     4   ar
    12     4     5    1
    13     4     6   ar
    14     6    10    1
    15    10    11   ar
    16    11    12   ar
    17    12    13   ar
    18    13    14    1
    19    13    15   ar
    20    15    16   ar
    21     6     7   ar
    22    20    21   ar
    23    21    22   ar
    24    25    27    1
    25    27    28   ar
    26    27    29   ar
    27    22    17   ar
    28     7     1   ar
    29    16    10   ar
    30     5     8    1
    31     5     9    1
@<TRIPOS>MOLECULE
*****
 29 31 0 0 0
SMALL
GASTEIGER

@<TRIPOS>ATOM
      1 C          64.0073   90.8805   12.0629 C.ar    1  UNL1        0.0193
      2 C          64.2133   91.0056   13.5434 C.ar    1  UNL1        0.1002
      3 N          65.0736   92.1058   14.0906 N.ar    1  UNL1       -0.2296
      4 C          65.7279   93.0809   13.1573 C.ar    1  UNL1        0.1253
      5 N          66.5882   94.1811   13.7045 N.pl3   1  UNL1       -0.3426
      6 C          65.5219   92.9557   11.6768 C.ar    1  UNL1        0.0312
      7 C          64.6616   91.8555   11.1296 C.ar    1  UNL1        0.0043
      8 H          66.7234   94.2632   14.6762 H       1  UNL1        0.1437
      9 H          67.0176   94.8211   13.0919 H       1  UNL1        0.1437
     10 C          66.1762   93.9308   10.7434 C.ar    1  UNL1        0.0027
     11 C          67.3570   93.5058    9.9218 C.ar    1  UNL1        0.0010
     12 C          68.0113   94.4808    8.9885 C.ar    1  UNL1        0.0114
     13 C          67.4848   95.8810    8.8767 C.ar    1  UNL1        0.0577
     14 CL         68.1391   96.8560    7.9433 Cl      1  UNL1       -0.0822
     15 C          66.3040   96.3060    9.6983 C.ar    1  UNL1        0.0114
     16 C          65.6497   95.3309   10.6317 C.ar    1  UNL1        0.0010
     17 C          61.4263   87.5798   10.4214 C.ar    1  UNL1        0.1387
     18 C          62.2871   87.3310   11.6243 C.ar    1  UNL1        0.0369
     19 C          63.1474   88.4312   12.1715 C.ar    1  UNL1        0.0032
     20 C          63.1470   89.7802   11.5157 C.ar    1  UNL1        0.0017
     21 C          62.2862   90.0290   10.3128 C.ar    1  UNL1        0.0032
     22 C          61.4259   88.9288    9.7656 C.ar    1  UNL1        0.0369
     23 O          60.5660   86.4796    9.8742 O.3     1  UNL1       -0.4774
     24 C          62.1761   85.2199    9.3080 C.3     1  UNL1        0.0495
     25 C          60.9659   85.7711    8.6140 C.3     1  UNL1        0.1646
     26 C          59.7557   86.3223    7.9201 C.3     1  UNL1        0.0495
     27 C          61.3658   85.0626    7.3538 C.2     1  UNL1        0.0863
     28 O          60.3171   84.6223    6.3759 O.co2   1  UNL1       -0.5457
     29 O          62.8143   84.7944    7.0715 O.co2   1  UNL1       -0.5457
@<TRIPOS>UNITY_ATOM_ATTR
28 1
charge -1
@<TRIPOS>BOND
     1    24    25    1
     2    25    26    1
     3    25    23    1
     4    23    17    1
     5    17    18   ar
     6    18    19   ar
     7    19    20   ar
     8    20     1    1
     9     1     2   ar
    10     2     3   ar
    11     3     4   ar
    12     4     5    1
    13     4     6   ar
    14     6    10    1
    15    10    11   ar
    16    11    12   ar
    17    12    13   ar
    18    13    14    1
    19    13    15   ar
    20    15    16   ar
    21     6     7   ar
    22    20    21   ar
    23    21    22   ar
    24    25    27    1
    25    27    28   ar
    26    27    29   ar
    27    22    17   ar
    28     7     1   ar
    29    16    10   ar
    30     5     8    1
    31     5     9    1
@<TRIPOS>MOLECULE
*****
 29 31 0 0 0
SMALL
GASTEIGER

@<TRIPOS>ATOM
      1 C          62.9986   88.6962   11.9396 C.ar    1  UNL1        0.0193
      2 C          62.2034   89.1077   10.7362 C.ar    1  UNL1        0.1002
      3 N          61.5532   88.0659    9.8748 N.ar    1  UNL1       -0.2296
      4 C          61.6981   86.6127   10.2170 C.ar    1  UNL1        0.1253
      5 N          61.0478   85.5709    9.3557 N.pl3   1  UNL1       -0.3426
      6 C          62.4932   86.2012   11.4205 C.ar    1  UNL1        0.0312
      7 C          63.1435   87.2430   12.2818 C.ar    1  UNL1        0.0043
      8 H          60.5259   85.8410    8.5658 H       1  UNL1        0.1437
      9 H          61.1429   84.6171    9.5803 H       1  UNL1        0.1437
     10 C          62.6382   84.7480   11.7627 C.ar    1  UNL1        0.0027
     11 C          63.1768   83.7877   10.7440 C.ar    1  UNL1        0.0010
     12 C          63.3217   82.3345   11.0861 C.ar    1  UNL1        0.0114
     13 C          62.9281   81.8415   12.4470 C.ar    1  UNL1        0.0577
     14 CL         63.0730   80.3882   12.7892 Cl      1  UNL1       -0.0822
     15 C          62.3895   82.8017   13.4658 C.ar    1  UNL1        0.0114
     16 C          62.2445   84.2550   13.1235 C.ar    1  UNL1        0.0010
     17 C          64.9494   91.8216   14.5236 C.ar    1  UNL1        0.1387
     18 C          64.7528   92.0757   13.0584 C.ar    1  UNL1        0.0369
     19 C          64.1025   91.0340   12.1971 C.ar    1  UNL1        0.0032
     20 C          63.6489   89.7380   12.8009 C.ar    1  UNL1        0.0017
     21 C          63.8455   89.4838   14.2661 C.ar    1  UNL1        0.0032
     22 C          64.4958   90.5256   15.1274 C.ar    1  UNL1        0.0369
     23 O          65.5997   92.8633   15.3849 O.3     1  UNL1       -0.4774
     24 C          67.3122   92.1816   16.4347 C.3     1  UNL1        0.0495
     25 C          67.0757   93.1089   15.2797 C.3     1  UNL1        0.1646
     26 C          66.8391   94.0361   14.1246 C.3     1  UNL1        0.0495
     27 C          68.5517   93.3545   15.1744 C.2     1  UNL1        0.0863
     28 O          69.2061   94.3787   16.0535 O.co2   1  UNL1       -0.5457
     29 O          69.3733   92.5759   14.1902 O.co2   1  UNL1       -0.5457
@<TRIPOS>UNITY_ATOM_ATTR
28 1
charge -1
@<TRIPOS>BOND
     1    24    25    1
     2    25    26    1
     3    25    23    1
     4    23    17    1
     5    17    18   ar
     6    18    19   ar
     7    19    20   ar
     8    20     1    1
     9     1     2   ar
    10     2     3   ar
    11     3     4   ar
    12     4     5    1
    13     4     6   ar
    14     6    10    1
    15    10    11   ar
    16    11    12   ar
    17    12    13   ar
    18    13    14    1
    19    13    15   ar
    20    15    16   ar
    21     6     7   ar
    22    20    21   ar
    23    21    22   ar
    24    25    27    1
    25    27    28   ar
    26    27    29   ar
    27    22    17   ar
    28     7     1   ar
    29    16    10   ar
    30     5     8    1
    31     5     9    1
@<TRIPOS>MOLECULE
*****
 29 31 0 0 0
SMALL
GASTEIGER

@<TRIPOS>ATOM
      1 C          63.8714   88.4061   13.2785 C.ar    1  UNL1        0.0193
      2 C          63.0371   88.9994   12.1822 C.ar    1  UNL1        0.1002
      3 N          63.2325   90.4319   11.7826 N.ar    1  UNL1       -0.2296
      4 C          64.2623   91.2711   12.4792 C.ar    1  UNL1        0.1253
      5 N          64.4577   92.7036   12.0795 N.pl3   1  UNL1       -0.3426
      6 C          65.0966   90.6777   13.5754 C.ar    1  UNL1        0.0312
      7 C          64.9012   89.2452   13.9751 C.ar    1  UNL1        0.0043
      8 H          63.9101   93.0930   11.3600 H       1  UNL1        0.1437
      9 H          65.1336   93.2544   12.5367 H       1  UNL1        0.1437
     10 C          66.1264   91.5169   14.2721 C.ar    1  UNL1        0.0027
     11 C          65.8040   92.1609   15.5879 C.ar    1  UNL1        0.0010
     12 C          66.8337   93.0000   16.2846 C.ar    1  UNL1        0.0114
     13 C          68.1860   93.1953   15.6654 C.ar    1  UNL1        0.0577
     14 CL         69.2158   94.0344   16.3621 Cl      1  UNL1       -0.0822
     15 C          68.5085   92.5514   14.3496 C.ar    1  UNL1        0.0114
     16 C          67.4786   91.7122   13.6529 C.ar    1  UNL1        0.0010
     17 C          63.2851   84.1085   14.4774 C.ar    1  UNL1        0.1387
     18 C          64.0167   85.0484   15.3891 C.ar    1  UNL1        0.0369
     19 C          64.2121   86.4809   14.9895 C.ar    1  UNL1        0.0032
     20 C          63.6759   86.9735   13.6781 C.ar    1  UNL1        0.0017
     21 C          62.9444   86.0337   12.7663 C.ar    1  UNL1        0.0032
     22 C          62.7489   84.6012   13.1660 C.ar    1  UNL1        0.0369
     23 O          63.0896   82.6760   14.8770 O.3     1  UNL1       -0.4774
     24 C          64.2965   81.8125   13.3612 C.3     1  UNL1        0.0495
     25 C          62.8827   81.6258   13.8263 C.3     1  UNL1        0.1646
     26 C          61.4689   81.4390   14.2913 C.3     1  UNL1        0.0495
     27 C          62.6757   80.5755   12.7755 C.2     1  UNL1        0.0863
     28 O          62.1921   79.2100   13.1649 O.co2   1  UNL1       -0.5457
     29 O          62.9523   80.8906   11.3353 O.co2   1  UNL1       -0.5457
@<TRIPOS>UNITY_ATOM_ATTR
28 1
charge -1
@<TRIPOS>BOND
     1    24    25    1
     2    25    26    1
     3    25    23    1
     4    23    17    1
     5    17    18   ar
     6    18    19   ar
     7    19    20   ar
     8    20     1    1
     9     1     2   ar
    10     2     3   ar
    11     3     4   ar
    12     4     5    1
    13     4     6   ar
    14     6    10    1
    15    10    11   ar
    16    11    12   ar
    17    12    13   ar
    18    13    14    1
    19    13    15   ar
    20    15    16   ar
    21     6     7   ar
    22    20    21   ar
    23    21    22   ar
    24    25    27    1
    25    27    28   ar
    26    27    29   ar
    27    22    17   ar
    28     7     1   ar
    29    16    10   ar
    30     5     8    1
    31     5     9    1
@<TRIPOS>MOLECULE
*****
 29 31 0 0 0
SMALL
GASTEIGER

@<TRIPOS>ATOM
      1 C          62.4311   89.8872   11.4380 C.ar    1  UNL1        0.0193
      2 C          61.1304   90.1162   12.1491 C.ar    1  UNL1        0.1002
      3 N          59.9252   89.2986   11.7898 N.ar    1  UNL1       -0.2296
      4 C          60.0206   88.2521   10.7195 C.ar    1  UNL1        0.1253
      5 N          58.8154   87.4346   10.3602 N.pl3   1  UNL1       -0.3426
      6 C          61.3213   88.0231   10.0084 C.ar    1  UNL1        0.0312
      7 C          62.5266   88.8406   10.3676 C.ar    1  UNL1        0.0043
      8 H          57.9617   87.5849   10.8270 H       1  UNL1        0.1437
      9 H          58.8780   86.7478    9.6577 H       1  UNL1        0.1437
     10 C          61.4168   86.9766    8.9380 C.ar    1  UNL1        0.0027
     11 C          62.6626   86.1519    8.8045 C.ar    1  UNL1        0.0010
     12 C          62.7582   85.1054    7.7341 C.ar    1  UNL1        0.0114
     13 C          61.6079   84.8835    6.7973 C.ar    1  UNL1        0.0577
     14 CL         61.7034   83.8370    5.7269 Cl      1  UNL1       -0.0822
     15 C          60.3621   85.7082    6.9308 C.ar    1  UNL1        0.0114
     16 C          60.2666   86.7548    8.0012 C.ar    1  UNL1        0.0010
     17 C          66.0469   92.3397   12.5157 C.ar    1  UNL1        0.1387
     18 C          65.4402   92.4586   11.1491 C.ar    1  UNL1        0.0369
     19 C          64.2349   91.6410   10.7899 C.ar    1  UNL1        0.0032
     20 C          63.6364   90.7047   11.7972 C.ar    1  UNL1        0.0017
     21 C          64.2431   90.5858   13.1639 C.ar    1  UNL1        0.0032
     22 C          65.4483   91.4033   13.5231 C.ar    1  UNL1        0.0369
     23 O          67.2521   93.1572   12.8750 O.3     1  UNL1       -0.4774
     24 C          68.7624   92.0361   13.8559 C.3     1  UNL1        0.0495
     25 C          67.8013   93.1107   14.2700 C.3     1  UNL1        0.1646
     26 C          66.8401   94.1852   14.6842 C.3     1  UNL1        0.0495
     27 C          68.3504   93.0642   15.6652 C.2     1  UNL1        0.0863
     28 O          69.2417   94.1657   16.1574 O.co2   1  UNL1       -0.5457
     29 O          68.0082   91.9163   16.5680 O.co2   1  UNL1       -0.5457
@<TRIPOS>UNITY_ATOM_ATTR
28 1
charge -1
@<TRIPOS>BOND
     1    24    25    1
     2    25    26    1
     3    25    23    1
     4    23    17    1
     5    17    18   ar
     6    18    19   ar
     7    19    20   ar
     8    20     1    1
     9     1     2   ar
    10     2     3   ar
    11     3     4   ar
    12     4     5    1
    13     4     6   ar
    14     6    10    1
    15    10    11   ar
    16    11    12   ar
    17    12    13   ar
    18    13    14    1
    19    13    15   ar
    20    15    16   ar
    21     6     7   ar
    22    20    21   ar
    23    21    22   ar
    24    25    27    1
    25    27    28   ar
    26    27    29   ar
    27    22    17   ar
    28     7     1   ar
    29    16    10   ar
    30     5     8    1
    31     5     9    1
@<TRIPOS>MOLECULE
*****
 29 31 0 0 0
SMALL
GASTEIGER

@<TRIPOS>ATOM
      1 C          63.4594   87.3055   13.0373 C.ar    1  UNL1        0.0193
      2 C          63.3876   86.1837   14.0305 C.ar    1  UNL1        0.1002
      3 N          62.9558   84.8170   13.5883 N.ar    1  UNL1       -0.2296
      4 C          62.5957   84.5720   12.1529 C.ar    1  UNL1        0.1253
      5 N          62.1638   83.2053   11.7107 N.pl3   1  UNL1       -0.3426
      6 C          62.6674   85.6938   11.1598 C.ar    1  UNL1        0.0312
      7 C          63.0993   87.0605   11.6020 C.ar    1  UNL1        0.0043
      8 H          62.1167   82.4690   12.3626 H       1  UNL1        0.1437
      9 H          61.9275   83.0445   10.7686 H       1  UNL1        0.1437
     10 C          62.3073   85.4489    9.7243 C.ar    1  UNL1        0.0027
     11 C          63.2674   84.7318    8.8221 C.ar    1  UNL1        0.0010
     12 C          62.9074   84.4868    7.3867 C.ar    1  UNL1        0.0114
     13 C          61.5872   84.9590    6.8535 C.ar    1  UNL1        0.0577
     14 CL         61.2272   84.7141    5.4181 Cl      1  UNL1       -0.0822
     15 C          60.6272   85.6762    7.7557 C.ar    1  UNL1        0.0114
     16 C          60.9872   85.9211    9.1912 C.ar    1  UNL1        0.0010
     17 C          64.7549   91.4057   14.3639 C.ar    1  UNL1        0.1387
     18 C          64.9897   90.2207   15.2531 C.ar    1  UNL1        0.0369
     19 C          64.5578   88.8540   14.8109 C.ar    1  UNL1        0.0032
     20 C          63.8912   88.6722   13.4795 C.ar    1  UNL1        0.0017
     21 C          63.6564   89.8572   12.5904 C.ar    1  UNL1        0.0032
     22 C          64.0883   91.2240   13.0326 C.ar    1  UNL1        0.0369
     23 O          65.1868   92.7724   14.8061 O.3     1  UNL1       -0.4774
     24 C          66.7217   93.4922   13.5310 C.3     1  UNL1        0.0495
     25 C          66.6452   93.0812   14.9716 C.3     1  UNL1        0.1646
     26 C          66.5688   92.6702   16.4121 C.3     1  UNL1        0.0495
     27 C          68.1038   93.3900   15.1371 C.2     1  UNL1        0.0863
     28 O          69.1204   92.6868   14.2873 O.co2   1  UNL1       -0.5457
     29 O          68.5457   94.4019   16.1523 O.co2   1  UNL1       -0.5457
@<TRIPOS>UNITY_ATOM_ATTR
28 1
charge -1
@<TRIPOS>BOND
     1    24    25    1
     2    25    26    1
     3    25    23    1
     4    23    17    1
     5    17    18   ar
     6    18    19   ar
     7    19    20   ar
     8    20     1    1
     9     1     2   ar
    10     2     3   ar
    11     3     4   ar
    12     4     5    1
    13     4     6   ar
    14     6    10    1
    15    10    11   ar
    16    11    12   ar
    17    12    13   ar
    18    13    14    1
    19    13    15   ar
    20    15    16   ar
    21     6     7   ar
    22    20    21   ar
    23    21    22   ar
    24    25    27    1
    25    27    28   ar
    26    27    29   ar
    27    22    17   ar
    28     7     1   ar
    29    16    10   ar
    30     5     8    1
    31     5     9    1
