@<TRIPOS>MOLECULE
*****
 58 64 0 0 0
SMALL
GASTEIGER

@<TRIPOS>ATOM
      1 N          58.2859   96.0409   -3.6889 N.3     1  UNL1       -0.1862
      2 C          59.7594   96.2167   -3.9074 C.3     1  UNL1        0.1775
      3 C          60.7329   95.7519   -2.8652 C.2     1  UNL1        0.2452
      4 O          62.2065   95.9278   -3.0838 O.2     1  UNL1       -0.2732
      5 N          60.2330   95.1113   -1.6044 N.am    1  UNL1       -0.2541
      6 C          61.2065   94.6466   -0.5622 C.3     1  UNL1        0.1577
      7 C          60.7065   94.0060    0.6986 C.2     1  UNL1        0.2445
      8 O          61.6800   93.5412    1.7408 O.2     1  UNL1       -0.2731
      9 N          59.2329   93.8301    0.9172 N.am    1  UNL1       -0.2705
     10 C          58.2594   94.2949   -0.1251 C.3     1  UNL1        0.1359
     11 C          58.7595   94.9355   -1.3859 C.3     1  UNL1        0.1908
     12 N          57.7859   95.4003   -2.4281 N.am    1  UNL1       -0.1863
     13 C          56.3123   95.2244   -2.2095 C.2     1  UNL1        0.3191
     14 O          55.8124   94.5838   -0.9488 O.2     1  UNL1       -0.2512
     15 N          55.3388   95.6891   -3.2518 N.am    1  UNL1       -0.2836
     16 H          55.6670   96.1096   -4.0793 H       1  UNL1        0.1513
     17 C          57.3124   96.5056   -4.7311 C.3     1  UNL1        0.1188
     18 C          56.8112   94.5276   -6.3393 C.2     1  UNL1       -0.0034
     19 C          57.3456   95.9098   -6.1073 C.2     1  UNL1       -0.0071
     20 C          62.6800   94.8224   -0.7808 C.3     1  UNL1        0.0556
     21 C          63.5594   95.2598    0.3529 C.ar    1  UNL1       -0.0198
     22 C          63.1520   96.4181    1.2144 C.ar    1  UNL1       -0.0011
     23 C          64.0315   96.8554    2.3482 C.ar    1  UNL1        0.0363
     24 C          65.3183   96.1345    2.6204 C.ar    1  UNL1        0.1337
     25 O          66.1978   96.5718    3.7541 O.3     1  UNL1       -0.5055
     26 C          65.7258   94.9761    1.7588 C.ar    1  UNL1        0.0363
     27 C          64.8464   94.5387    0.6251 C.ar    1  UNL1       -0.0011
     28 H          65.9432   97.2954    4.2922 H       1  UNL1        0.2922
     29 C          58.7330   93.1895    2.1779 C.3     1  UNL1        0.1217
     30 C          59.6614   92.3650    3.0195 C.ar    1  UNL1        0.0135
     31 C          61.1253   92.3185    2.6957 C.ar    1  UNL1       -0.0012
     32 C          62.0538   91.4940    3.5372 C.ar    1  UNL1       -0.0002
     33 C          61.5183   90.7160    4.7025 C.ar    1  UNL1        0.0016
     34 C          60.0544   90.7625    5.0263 C.ar    1  UNL1        0.0214
     35 C          59.2435   90.1061    6.1041 C.ar    1  UNL1        0.0722
     36 C          57.8139   90.5249    5.9286 C.ar    1  UNL1        0.0805
     37 N          57.7413   91.4401    4.7425 N.ar    1  UNL1       -0.3241
     38 C          56.5016   92.0937    4.2078 C.3     1  UNL1        0.1305
     39 C          59.1260   91.5870    4.1848 C.ar    1  UNL1        0.0577
     40 C          59.7699   89.1914    7.1701 C.2     1  UNL1        0.2510
     41 O          59.4846   87.7202    7.1041 O.2     1  UNL1       -0.2698
     42 N          60.5814   89.7479    8.3022 N.am    1  UNL1       -0.2803
     43 H          60.7686   90.7135    8.3456 H       1  UNL1        0.1552
     44 C          61.1078   88.8333    9.3683 C.ar    1  UNL1        0.0507
     45 C          60.6996   87.3900    9.3867 C.ar    1  UNL1        0.0178
     46 C          61.2260   86.4754   10.4528 C.ar    1  UNL1        0.0382
     47 C          62.1604   87.0040   11.5003 C.ar    1  UNL1        0.1388
     48 C          62.5685   88.4473   11.4818 C.ar    1  UNL1        0.0382
     49 C          62.0422   89.3620   10.4158 C.ar    1  UNL1        0.0178
     50 O          62.6867   86.0895   12.5663 O.3     1  UNL1       -0.4714
     51 C          62.6738   84.6046   12.3541 C.3     1  UNL1        0.2525
     52 C          53.8653   95.5133   -3.0332 C.3     1  UNL1        0.1177
     53 C          52.8955   95.9062   -4.1080 C.ar    1  UNL1       -0.0025
     54 C          53.3922   96.2207   -5.4879 C.ar    1  UNL1       -0.0026
     55 C          52.4225   96.6136   -6.5627 C.ar    1  UNL1       -0.0003
     56 C          50.9560   96.6921   -6.2575 C.ar    1  UNL1       -0.0000
     57 C          50.4592   96.3777   -4.8775 C.ar    1  UNL1       -0.0003
     58 C          51.4290   95.9847   -3.8027 C.ar    1  UNL1       -0.0026
@<TRIPOS>BOND
     1    18    19    2
     2    19    17    1
     3    17     1    1
     4     1     2    1
     5     2     3    1
     6     3     4    2
     7     3     5   am
     8     5     6    1
     9     6    20    1
    10    20    21    1
    11    21    22   ar
    12    22    23   ar
    13    23    24   ar
    14    24    25    1
    15    24    26   ar
    16    26    27   ar
    17     6     7    1
    18     7     8    2
    19     7     9   am
    20     9    29    1
    21    29    30    1
    22    30    31   ar
    23    31    32   ar
    24    32    33   ar
    25    33    34   ar
    26    34    35   ar
    27    35    40    1
    28    40    41    2
    29    40    42   am
    30    42    44    1
    31    44    45   ar
    32    45    46   ar
    33    46    47   ar
    34    47    50    1
    35    50    51    1
    36    47    48   ar
    37    48    49   ar
    38    35    36   ar
    39    36    37   ar
    40    37    38    1
    41    37    39   ar
    42     9    10    1
    43    11    10    1
    44    11    12    1
    45    12    13   am
    46    13    14    2
    47    13    15   am
    48    15    52    1
    49    52    53    1
    50    53    54   ar
    51    54    55   ar
    52    55    56   ar
    53    56    57   ar
    54    57    58   ar
    55    12     1    1
    56    58    53   ar
    57    11     5    1
    58    27    21   ar
    59    39    30   ar
    60    39    34   ar
    61    49    44   ar
    62    25    28    1
    63    42    43    1
    64    15    16    1
@<TRIPOS>MOLECULE
*****
 58 64 0 0 0
SMALL
GASTEIGER

@<TRIPOS>ATOM
      1 N          58.2101   96.2566   -3.6503 N.3     1  UNL1       -0.1862
      2 C          59.6711   96.4880   -3.8990 C.3     1  UNL1        0.1775
      3 C          60.6824   96.0654   -2.8750 C.2     1  UNL1        0.2452
      4 O          62.1435   96.2968   -3.1238 O.2     1  UNL1       -0.2732
      5 N          60.2327   95.4115   -1.6021 N.am    1  UNL1       -0.2541
      6 C          61.2440   94.9890   -0.5780 C.3     1  UNL1        0.1577
      7 C          60.7942   94.3351    0.6948 C.2     1  UNL1        0.2445
      8 O          61.8055   93.9126    1.7189 O.2     1  UNL1       -0.2731
      9 N          59.3332   94.1038    0.9436 N.am    1  UNL1       -0.2705
     10 C          58.3219   94.5263   -0.0805 C.3     1  UNL1        0.1359
     11 C          58.7717   95.1802   -1.3534 C.3     1  UNL1        0.1908
     12 N          57.7604   95.6028   -2.3774 N.am    1  UNL1       -0.1863
     13 C          56.2993   95.3714   -2.1286 C.2     1  UNL1        0.3191
     14 O          55.8496   94.7176   -0.8558 O.2     1  UNL1       -0.2512
     15 N          55.2880   95.7940   -3.1527 N.am    1  UNL1       -0.2836
     16 H          55.5832   96.2231   -3.9881 H       1  UNL1        0.1513
     17 C          57.1988   96.6792   -4.6744 C.3     1  UNL1        0.1188
     18 C          56.4336   96.8192   -7.1532 C.2     1  UNL1       -0.0034
     19 C          57.4778   96.4727   -6.1336 C.2     1  UNL1       -0.0071
     20 C          62.7050   95.2203   -0.8268 C.3     1  UNL1        0.0556
     21 C          63.3795   94.5662   -1.9961 C.ar    1  UNL1       -0.0198
     22 C          64.3809   95.3320   -2.8089 C.ar    1  UNL1       -0.0011
     23 C          65.0554   94.6779   -3.9782 C.ar    1  UNL1        0.0363
     24 C          64.7284   93.2581   -4.3346 C.ar    1  UNL1        0.1337
     25 O          65.4029   92.6040   -5.5039 O.3     1  UNL1       -0.5055
     26 C          63.7270   92.4922   -3.5218 C.ar    1  UNL1        0.0363
     27 C          63.0525   93.1463   -2.3525 C.ar    1  UNL1       -0.0011
     28 H          66.0285   93.0824   -6.0117 H       1  UNL1        0.2922
     29 C          58.8835   93.4499    2.2165 C.3     1  UNL1        0.1217
     30 C          59.8264   92.5685    2.9807 C.ar    1  UNL1        0.0135
     31 C          61.2724   92.4987    2.5881 C.ar    1  UNL1       -0.0012
     32 C          62.2154   91.6173    3.3522 C.ar    1  UNL1       -0.0002
     33 C          61.7123   90.8057    4.5090 C.ar    1  UNL1        0.0016
     34 C          60.2663   90.8755    4.9016 C.ar    1  UNL1        0.0214
     35 C          59.4874   90.1958    5.9886 C.ar    1  UNL1        0.0722
     36 C          58.0632   90.6572    5.8961 C.ar    1  UNL1        0.0805
     37 N          57.9618   91.6219    4.7521 N.ar    1  UNL1       -0.3241
     38 C          56.7172   92.3278    4.3018 C.3     1  UNL1        0.1305
     39 C          59.3233   91.7569    4.1375 C.ar    1  UNL1        0.0577
     40 C          60.0365   89.2252    6.9918 C.2     1  UNL1        0.2510
     41 O          60.1680   87.7737    6.6369 O.2     1  UNL1       -0.2698
     42 N          60.4541   89.7060    8.3499 N.am    1  UNL1       -0.2803
     43 H          60.3678   90.6587    8.5828 H       1  UNL1        0.1552
     44 C          61.0032   88.7355    9.3531 C.ar    1  UNL1        0.0507
     45 C          60.4955   87.3244    9.3871 C.ar    1  UNL1        0.0178
     46 C          61.0445   86.3538   10.3903 C.ar    1  UNL1        0.0382
     47 C          62.1012   86.7943   11.3596 C.ar    1  UNL1        0.1388
     48 C          62.6089   88.2054   11.3256 C.ar    1  UNL1        0.0382
     49 C          62.0599   89.1760   10.3224 C.ar    1  UNL1        0.0178
     50 O          62.6503   85.8237   12.3628 O.3     1  UNL1       -0.4714
     51 C          62.6245   84.3519   12.0745 C.3     1  UNL1        0.2525
     52 C          53.8270   95.5627   -2.9040 C.3     1  UNL1        0.1177
     53 C          52.8210   95.9198   -3.9577 C.ar    1  UNL1       -0.0025
     54 C          51.3696   96.0400   -3.5990 C.ar    1  UNL1       -0.0026
     55 C          50.3636   96.3971   -4.6527 C.ar    1  UNL1       -0.0003
     56 C          50.8091   96.6342   -6.0652 C.ar    1  UNL1       -0.0000
     57 C          52.2606   96.5141   -6.4241 C.ar    1  UNL1       -0.0003
     58 C          53.2666   96.1569   -5.3703 C.ar    1  UNL1       -0.0026
@<TRIPOS>BOND
     1    18    19    2
     2    19    17    1
     3    17     1    1
     4     1     2    1
     5     2     3    1
     6     3     4    2
     7     3     5   am
     8     5     6    1
     9     6    20    1
    10    20    21    1
    11    21    22   ar
    12    22    23   ar
    13    23    24   ar
    14    24    25    1
    15    24    26   ar
    16    26    27   ar
    17     6     7    1
    18     7     8    2
    19     7     9   am
    20     9    29    1
    21    29    30    1
    22    30    31   ar
    23    31    32   ar
    24    32    33   ar
    25    33    34   ar
    26    34    35   ar
    27    35    40    1
    28    40    41    2
    29    40    42   am
    30    42    44    1
    31    44    45   ar
    32    45    46   ar
    33    46    47   ar
    34    47    50    1
    35    50    51    1
    36    47    48   ar
    37    48    49   ar
    38    35    36   ar
    39    36    37   ar
    40    37    38    1
    41    37    39   ar
    42     9    10    1
    43    11    10    1
    44    11    12    1
    45    12    13   am
    46    13    14    2
    47    13    15   am
    48    15    52    1
    49    52    53    1
    50    53    54   ar
    51    54    55   ar
    52    55    56   ar
    53    56    57   ar
    54    57    58   ar
    55    12     1    1
    56    58    53   ar
    57    11     5    1
    58    27    21   ar
    59    39    30   ar
    60    39    34   ar
    61    49    44   ar
    62    25    28    1
    63    42    43    1
    64    15    16    1
@<TRIPOS>MOLECULE
*****
 58 64 0 0 0
SMALL
GASTEIGER

@<TRIPOS>ATOM
      1 N          62.6153   84.2333    9.3135 N.3     1  UNL1       -0.1862
      2 C          61.8907   84.3306    8.0038 C.3     1  UNL1        0.1775
      3 C          61.0953   85.5595    7.6762 C.2     1  UNL1        0.2452
      4 O          60.3707   85.6568    6.3664 O.2     1  UNL1       -0.2732
      5 N          61.0244   86.6909    8.6584 N.am    1  UNL1       -0.2541
      6 C          60.2289   87.9197    8.3308 C.3     1  UNL1        0.1577
      7 C          60.1580   89.0512    9.3130 C.2     1  UNL1        0.2445
      8 O          59.3626   90.2800    8.9854 O.2     1  UNL1       -0.2731
      9 N          60.8826   88.9539   10.6228 N.am    1  UNL1       -0.2705
     10 C          61.6781   87.7251   10.9504 C.3     1  UNL1        0.1359
     11 C          61.7489   86.5936    9.9681 C.3     1  UNL1        0.1908
     12 N          62.5444   85.3648   10.2957 N.am    1  UNL1       -0.1863
     13 C          63.2690   85.2675   11.6055 C.2     1  UNL1        0.3191
     14 O          63.1981   86.3989   12.5877 O.2     1  UNL1       -0.2512
     15 N          64.0644   84.0387   11.9331 N.am    1  UNL1       -0.2836
     16 H          64.1109   83.2960   11.2884 H       1  UNL1        0.1513
     17 C          63.4107   83.0045    9.6411 C.3     1  UNL1        0.1188
     18 C          63.1266   80.5074   10.2998 C.2     1  UNL1       -0.0034
     19 C          62.8345   81.9577   10.5477 C.2     1  UNL1       -0.0071
     20 C          59.5044   88.0171    7.0211 C.3     1  UNL1        0.0556
     21 C          59.4680   89.3202    6.2791 C.ar    1  UNL1       -0.0198
     22 C          58.1612   90.0242    6.0633 C.ar    1  UNL1       -0.0011
     23 C          58.1248   91.3273    5.3213 C.ar    1  UNL1        0.0363
     24 C          59.3953   91.9265    4.7951 C.ar    1  UNL1        0.1337
     25 O          59.3589   93.2296    4.0531 O.3     1  UNL1       -0.5055
     26 C          60.7022   91.2225    5.0109 C.ar    1  UNL1        0.0363
     27 C          60.7386   89.9193    5.7529 C.ar    1  UNL1       -0.0011
     28 H          58.5426   93.6693    3.9184 H       1  UNL1        0.2922
     29 C          60.8118   90.0853   11.6050 C.3     1  UNL1        0.1217
     30 C          61.8633   90.2248   12.6656 C.ar    1  UNL1        0.0135
     31 C          61.6085   89.7007   14.0478 C.ar    1  UNL1       -0.0012
     32 C          62.6600   89.8402   15.1084 C.ar    1  UNL1       -0.0002
     33 C          63.9662   90.5038   14.7869 C.ar    1  UNL1        0.0016
     34 C          64.2210   91.0279   13.4047 C.ar    1  UNL1        0.0214
     35 C          65.4030   91.7231   12.7969 C.ar    1  UNL1        0.0722
     36 C          65.0821   92.0133   11.3607 C.ar    1  UNL1        0.0805
     37 N          63.7017   91.4974   11.0808 N.ar    1  UNL1       -0.3241
     38 C          62.9802   91.5767    9.7682 C.3     1  UNL1        0.1305
     39 C          63.1695   90.8884   12.3441 C.ar    1  UNL1        0.0577
     40 C          66.6816   92.0677   13.5017 C.2     1  UNL1        0.2510
     41 O          67.9758   92.0812   12.7435 O.2     1  UNL1       -0.2698
     42 N          66.6659   92.3986   14.9646 N.am    1  UNL1       -0.2803
     43 H          65.8165   92.3897   15.4622 H       1  UNL1        0.1552
     44 C          67.9443   92.7432   15.6695 C.ar    1  UNL1        0.0507
     45 C          68.4717   94.1466   15.6228 C.ar    1  UNL1        0.0178
     46 C          69.7502   94.4913   16.3276 C.ar    1  UNL1        0.0382
     47 C          70.5013   93.4324   17.0790 C.ar    1  UNL1        0.1388
     48 C          69.9739   92.0290   17.1257 C.ar    1  UNL1        0.0382
     49 C          68.6954   91.6843   16.4209 C.ar    1  UNL1        0.0178
     50 O          71.7797   93.7770   17.7838 O.3     1  UNL1       -0.4714
     51 C          72.4533   92.7591   18.6558 C.3     1  UNL1        0.2525
     52 C          64.7890   83.9413   13.2428 C.3     1  UNL1        0.1177
     53 C          64.2149   84.5898   14.4676 C.ar    1  UNL1       -0.0025
     54 C          63.0838   83.9343   15.2029 C.ar    1  UNL1       -0.0026
     55 C          62.5097   84.5827   16.4277 C.ar    1  UNL1       -0.0003
     56 C          63.0668   85.8866   16.9170 C.ar    1  UNL1       -0.0000
     57 C          64.1980   86.5422   16.1816 C.ar    1  UNL1       -0.0003
     58 C          64.7720   85.8937   14.9569 C.ar    1  UNL1       -0.0026
@<TRIPOS>BOND
     1    18    19    2
     2    19    17    1
     3    17     1    1
     4     1     2    1
     5     2     3    1
     6     3     4    2
     7     3     5   am
     8     5     6    1
     9     6    20    1
    10    20    21    1
    11    21    22   ar
    12    22    23   ar
    13    23    24   ar
    14    24    25    1
    15    24    26   ar
    16    26    27   ar
    17     6     7    1
    18     7     8    2
    19     7     9   am
    20     9    29    1
    21    29    30    1
    22    30    31   ar
    23    31    32   ar
    24    32    33   ar
    25    33    34   ar
    26    34    35   ar
    27    35    40    1
    28    40    41    2
    29    40    42   am
    30    42    44    1
    31    44    45   ar
    32    45    46   ar
    33    46    47   ar
    34    47    50    1
    35    50    51    1
    36    47    48   ar
    37    48    49   ar
    38    35    36   ar
    39    36    37   ar
    40    37    38    1
    41    37    39   ar
    42     9    10    1
    43    11    10    1
    44    11    12    1
    45    12    13   am
    46    13    14    2
    47    13    15   am
    48    15    52    1
    49    52    53    1
    50    53    54   ar
    51    54    55   ar
    52    55    56   ar
    53    56    57   ar
    54    57    58   ar
    55    12     1    1
    56    58    53   ar
    57    11     5    1
    58    27    21   ar
    59    39    30   ar
    60    39    34   ar
    61    49    44   ar
    62    25    28    1
    63    42    43    1
    64    15    16    1
