@<TRIPOS>MOLECULE
*****
 27 29 0 0 0
SMALL
GASTEIGER

@<TRIPOS>ATOM
      1 C          60.7745   88.7889   10.4134 C.ar    1  UNL1        0.0231
      2 C          60.5059   87.6951    9.4227 C.ar    1  UNL1        0.0597
      3 C          59.5600   87.9314    8.2828 C.3     1  UNL1        0.0519
      4 N          61.1832   86.3651    9.5719 N.ar    1  UNL1       -0.2307
      5 C          62.1290   86.1287   10.7119 C.ar    1  UNL1        0.1693
      6 N          62.3977   87.2225   11.7026 N.ar    1  UNL1       -0.2116
      7 C          61.7204   88.5525   11.5533 C.ar    1  UNL1        0.1309
      8 C          62.8063   84.7987   10.8611 C.ar    1  UNL1        0.0661
      9 C          63.5451   84.0598    9.7848 C.ar    1  UNL1        0.0110
     10 C          64.0591   82.7784   10.3713 C.ar    1  UNL1        0.0186
     11 C          63.6380   82.7254   11.8100 C.ar    1  UNL1        0.0871
     12 CL         63.9384   81.6182   12.7764 Cl      1  UNL1       -0.0752
     13 S          62.8637   83.9740   12.1127 S.2     1  UNL1       -0.0724
     14 C          59.2489   90.6577   11.3778 C.3     1  UNL1        0.0052
     15 C          60.0973   90.1189   10.2642 C.3     1  UNL1        0.0304
     16 N          61.9890   89.6463   12.5441 N.pl3   1  UNL1       -0.2981
     17 H          61.3895   89.7703   13.3151 H       1  UNL1        0.1536
     18 C          63.1711   90.5512   12.3602 C.ar    1  UNL1        0.0493
     19 C          64.0729   90.8523   13.5205 C.ar    1  UNL1        0.0143
     20 C          65.2550   91.7571   13.3365 C.ar    1  UNL1       -0.0026
     21 C          65.5353   92.3609   11.9923 C.ar    1  UNL1       -0.0165
     22 C          64.6336   92.0599   10.8321 C.ar    1  UNL1       -0.0026
     23 C          63.4515   91.1550   11.0160 C.ar    1  UNL1        0.0143
     24 C          66.7174   93.2658   11.8084 C.3     1  UNL1        0.0679
     25 C          66.7073   94.3018   10.7236 C.2     1  UNL1        0.0547
     26 O          65.5614   95.2638   10.6159 O.co2   1  UNL1       -0.5488
     27 O          67.8430   94.3758    9.7466 O.co2   1  UNL1       -0.5488
@<TRIPOS>UNITY_ATOM_ATTR
26 1
charge -1
@<TRIPOS>BOND
     1    14    15    1
     2    15     1    1
     3     1     2   ar
     4     2     3    1
     5     2     4   ar
     6     4     5   ar
     7     5     8    1
     8     8     9   ar
     9     9    10   ar
    10    10    11   ar
    11    11    12    1
    12    11    13   ar
    13     5     6   ar
    14     6     7   ar
    15     7    16    1
    16    16    18    1
    17    18    19   ar
    18    19    20   ar
    19    20    21   ar
    20    21    24    1
    21    24    25    1
    22    25    26   ar
    23    25    27   ar
    24    21    22   ar
    25    22    23   ar
    26     7     1   ar
    27    23    18   ar
    28    13     8   ar
    29    16    17    1
@<TRIPOS>MOLECULE
*****
 27 29 0 0 0
SMALL
GASTEIGER

@<TRIPOS>ATOM
      1 C          60.8913   89.0998   10.6132 C.ar    1  UNL1        0.0231
      2 C          60.6753   88.1127    9.5046 C.ar    1  UNL1        0.0597
      3 C          59.8234   88.4824    8.3266 C.3     1  UNL1        0.0519
      4 N          61.3113   86.7560    9.5739 N.ar    1  UNL1       -0.2307
      5 C          62.1632   86.3863   10.7518 C.ar    1  UNL1        0.1693
      6 N          62.3792   87.3733   11.8604 N.ar    1  UNL1       -0.2116
      7 C          61.7433   88.7301   11.7911 C.ar    1  UNL1        0.1309
      8 C          62.7992   85.0295   10.8211 C.ar    1  UNL1        0.0661
      9 C          63.4675   84.3101    9.6873 C.ar    1  UNL1        0.0110
     10 C          63.9598   82.9899   10.2018 C.ar    1  UNL1        0.0186
     11 C          63.5958   82.8934   11.6538 C.ar    1  UNL1        0.0871
     12 CL         63.8963   81.7391   12.5633 Cl      1  UNL1       -0.0752
     13 S          62.8785   84.1540   12.0365 S.2     1  UNL1       -0.0724
     14 C          59.1130   90.7967   11.4544 C.3     1  UNL1        0.0052
     15 C          60.2554   90.4565   10.5439 C.3     1  UNL1        0.0304
     16 N          61.9593   89.7172   12.8998 N.pl3   1  UNL1       -0.2981
     17 H          61.2142   89.9583   13.4963 H       1  UNL1        0.1536
     18 C          63.3106   90.3369   13.0994 C.ar    1  UNL1        0.0493
     19 C          63.8095   91.3743   12.1376 C.ar    1  UNL1        0.0143
     20 C          65.1608   91.9941   12.3373 C.ar    1  UNL1       -0.0026
     21 C          66.0132   91.5765   13.4987 C.ar    1  UNL1       -0.0165
     22 C          65.5144   90.5391   14.4605 C.ar    1  UNL1       -0.0026
     23 C          64.1630   89.9193   14.2609 C.ar    1  UNL1        0.0143
     24 C          67.3645   92.1962   13.6984 C.3     1  UNL1        0.0679
     25 C          67.7007   92.8587   15.0016 C.2     1  UNL1        0.0547
     26 O          69.0628   93.4504   15.2126 O.co2   1  UNL1       -0.5488
     27 O          66.6748   92.9293   16.0936 O.co2   1  UNL1       -0.5488
@<TRIPOS>UNITY_ATOM_ATTR
26 1
charge -1
@<TRIPOS>BOND
     1    14    15    1
     2    15     1    1
     3     1     2   ar
     4     2     3    1
     5     2     4   ar
     6     4     5   ar
     7     5     8    1
     8     8     9   ar
     9     9    10   ar
    10    10    11   ar
    11    11    12    1
    12    11    13   ar
    13     5     6   ar
    14     6     7   ar
    15     7    16    1
    16    16    18    1
    17    18    19   ar
    18    19    20   ar
    19    20    21   ar
    20    21    24    1
    21    24    25    1
    22    25    26   ar
    23    25    27   ar
    24    21    22   ar
    25    22    23   ar
    26     7     1   ar
    27    23    18   ar
    28    13     8   ar
    29    16    17    1
@<TRIPOS>MOLECULE
*****
 27 29 0 0 0
SMALL
GASTEIGER

@<TRIPOS>ATOM
      1 C          65.3429   91.3449   14.0597 C.ar    1  UNL1        0.0231
      2 C          66.7315   91.9121   14.0755 C.ar    1  UNL1        0.0597
      3 C          67.6151   91.6991   15.2688 C.3     1  UNL1        0.0519
      4 N          67.2364   92.6923   12.8981 N.ar    1  UNL1       -0.2307
      5 C          66.3528   92.9053   11.7049 C.ar    1  UNL1        0.1693
      6 N          64.9642   92.3381   11.6891 N.ar    1  UNL1       -0.2116
      7 C          64.4593   91.5580   12.8665 C.ar    1  UNL1        0.1309
      8 C          66.8577   93.6855   10.5274 C.ar    1  UNL1        0.0661
      9 C          67.7042   93.1487    9.4115 C.ar    1  UNL1        0.0110
     10 C          67.9744   94.2709    8.4535 C.ar    1  UNL1        0.0186
     11 C          67.2949   95.5013    8.9774 C.ar    1  UNL1        0.0871
     12 CL         67.3039   96.8556    8.3328 Cl      1  UNL1       -0.0752
     13 S          66.6047   95.1394   10.2591 S.2     1  UNL1       -0.0724
     14 C          63.9235   91.2159   16.2320 C.3     1  UNL1        0.0052
     15 C          64.8380   90.5647   15.2372 C.3     1  UNL1        0.0304
     16 N          63.0707   90.9908   12.8507 N.pl3   1  UNL1       -0.2981
     17 H          62.4005   91.3118   13.4964 H       1  UNL1        0.1536
     18 C          62.7034   89.9345   11.8511 C.ar    1  UNL1        0.0493
     19 C          62.8830   88.4847   12.1917 C.ar    1  UNL1        0.0143
     20 C          62.5156   87.4284   11.1922 C.ar    1  UNL1       -0.0026
     21 C          61.9686   87.8217    9.8520 C.ar    1  UNL1       -0.0165
     22 C          61.7891   89.2714    9.5114 C.ar    1  UNL1       -0.0026
     23 C          62.1564   90.3278   10.5110 C.ar    1  UNL1        0.0143
     24 C          61.6013   86.7654    8.8524 C.3     1  UNL1        0.0679
     25 C          60.2526   86.7903    8.1963 C.2     1  UNL1        0.0547
     26 O          59.3423   87.9654    8.3974 O.co2   1  UNL1       -0.5488
     27 O          59.8142   85.6401    7.3391 O.co2   1  UNL1       -0.5488
@<TRIPOS>UNITY_ATOM_ATTR
26 1
charge -1
@<TRIPOS>BOND
     1    14    15    1
     2    15     1    1
     3     1     2   ar
     4     2     3    1
     5     2     4   ar
     6     4     5   ar
     7     5     8    1
     8     8     9   ar
     9     9    10   ar
    10    10    11   ar
    11    11    12    1
    12    11    13   ar
    13     5     6   ar
    14     6     7   ar
    15     7    16    1
    16    16    18    1
    17    18    19   ar
    18    19    20   ar
    19    20    21   ar
    20    21    24    1
    21    24    25    1
    22    25    26   ar
    23    25    27   ar
    24    21    22   ar
    25    22    23   ar
    26     7     1   ar
    27    23    18   ar
    28    13     8   ar
    29    16    17    1
@<TRIPOS>MOLECULE
*****
 27 29 0 0 0
SMALL
GASTEIGER

@<TRIPOS>ATOM
      1 C          61.2556   87.6736    9.5792 C.ar    1  UNL1        0.0231
      2 C          61.4073   86.2497    9.1329 C.ar    1  UNL1        0.0597
      3 C          60.9774   85.8462    7.7535 C.3     1  UNL1        0.0519
      4 N          61.9888   85.2291   10.0658 N.ar    1  UNL1       -0.2307
      5 C          62.4186   85.6325   11.4450 C.ar    1  UNL1        0.1693
      6 N          62.2670   87.0565   11.8914 N.ar    1  UNL1       -0.2116
      7 C          61.6855   88.0770   10.9585 C.ar    1  UNL1        0.1309
      8 C          63.0001   84.6120   12.3780 C.ar    1  UNL1        0.0661
      9 C          63.8177   84.9008   13.6020 C.ar    1  UNL1        0.0110
     10 C          64.1890   83.5907   14.2312 C.ar    1  UNL1        0.0186
     11 C          63.6010   82.4922   13.3960 C.ar    1  UNL1        0.0871
     12 CL         63.7258   81.0209   13.6598 Cl      1  UNL1       -0.0752
     13 S          62.8663   83.1234   12.2507 S.2     1  UNL1       -0.0724
     14 C          59.3274   88.4634    8.0274 C.3     1  UNL1        0.0052
     15 C          60.6741   88.6942    8.6463 C.3     1  UNL1        0.0304
     16 N          61.5338   89.5011   11.4049 N.pl3   1  UNL1       -0.2981
     17 H          60.6399   89.9114   11.4464 H       1  UNL1        0.1536
     18 C          62.7442   90.2998   11.7882 C.ar    1  UNL1        0.0493
     19 C          63.2816   90.2229   13.1866 C.ar    1  UNL1        0.0143
     20 C          64.4920   91.0217   13.5699 C.ar    1  UNL1       -0.0026
     21 C          65.1650   91.8974   12.5549 C.ar    1  UNL1       -0.0165
     22 C          64.6276   91.9743   11.1566 C.ar    1  UNL1       -0.0026
     23 C          63.4172   91.1755   10.7733 C.ar    1  UNL1        0.0143
     24 C          66.3753   92.6961   12.9382 C.3     1  UNL1        0.0679
     25 C          67.5894   92.0036   13.4829 C.2     1  UNL1        0.0547
     26 O          67.6479   91.6216   14.9322 O.co2   1  UNL1       -0.5488
     27 O          68.7448   91.6931   12.5782 O.co2   1  UNL1       -0.5488
@<TRIPOS>UNITY_ATOM_ATTR
26 1
charge -1
@<TRIPOS>BOND
     1    14    15    1
     2    15     1    1
     3     1     2   ar
     4     2     3    1
     5     2     4   ar
     6     4     5   ar
     7     5     8    1
     8     8     9   ar
     9     9    10   ar
    10    10    11   ar
    11    11    12    1
    12    11    13   ar
    13     5     6   ar
    14     6     7   ar
    15     7    16    1
    16    16    18    1
    17    18    19   ar
    18    19    20   ar
    19    20    21   ar
    20    21    24    1
    21    24    25    1
    22    25    26   ar
    23    25    27   ar
    24    21    22   ar
    25    22    23   ar
    26     7     1   ar
    27    23    18   ar
    28    13     8   ar
    29    16    17    1
@<TRIPOS>MOLECULE
*****
 27 29 0 0 0
SMALL
GASTEIGER

@<TRIPOS>ATOM
      1 C          63.6779   88.2652   13.6914 C.ar    1  UNL1        0.0231
      2 C          63.6259   86.7875   13.4391 C.ar    1  UNL1        0.0597
      3 C          64.1906   85.8337   14.4499 C.3     1  UNL1        0.0519
      4 N          63.0093   86.2635   12.1761 N.ar    1  UNL1       -0.2307
      5 C          62.4447   87.2171   11.1653 C.ar    1  UNL1        0.1693
      6 N          62.4967   88.6948   11.4176 N.ar    1  UNL1       -0.2116
      7 C          63.1133   89.2188   12.6806 C.ar    1  UNL1        0.1309
      8 C          61.8281   86.6931    9.9023 C.ar    1  UNL1        0.0661
      9 C          60.4177   86.9250    9.4475 C.ar    1  UNL1        0.0110
     10 C          60.2316   86.2204    8.1364 C.ar    1  UNL1        0.0186
     11 C          61.5270   85.5530    7.7809 C.ar    1  UNL1        0.0871
     12 CL         61.7896   84.7367    6.5502 Cl      1  UNL1       -0.0752
     13 S          62.5137   85.8451    8.8723 S.2     1  UNL1       -0.0724
     14 C          63.4225   89.1582   16.1177 C.3     1  UNL1        0.0052
     15 C          64.2945   88.7892   14.9544 C.3     1  UNL1        0.0304
     16 N          63.1653   90.6966   12.9328 N.pl3   1  UNL1       -0.2981
     17 H          62.4882   91.1221   13.5072 H       1  UNL1        0.1536
     18 C          64.2487   91.5261   12.3100 C.ar    1  UNL1        0.0493
     19 C          64.1808   91.8772   10.8532 C.ar    1  UNL1        0.0143
     20 C          65.2643   92.7067   10.2303 C.ar    1  UNL1       -0.0026
     21 C          66.4157   93.1852   11.0642 C.ar    1  UNL1       -0.0165
     22 C          66.4836   92.8341   12.5209 C.ar    1  UNL1       -0.0026
     23 C          65.4001   92.0046   13.1438 C.ar    1  UNL1        0.0143
     24 C          67.4991   94.0147   10.4414 C.3     1  UNL1        0.0679
     25 C          67.7820   93.8987    8.9728 C.2     1  UNL1        0.0547
     26 O          68.4327   92.6611    8.4298 O.co2   1  UNL1       -0.5488
     27 O          67.4143   95.0204    8.0473 O.co2   1  UNL1       -0.5488
@<TRIPOS>UNITY_ATOM_ATTR
26 1
charge -1
@<TRIPOS>BOND
     1    14    15    1
     2    15     1    1
     3     1     2   ar
     4     2     3    1
     5     2     4   ar
     6     4     5   ar
     7     5     8    1
     8     8     9   ar
     9     9    10   ar
    10    10    11   ar
    11    11    12    1
    12    11    13   ar
    13     5     6   ar
    14     6     7   ar
    15     7    16    1
    16    16    18    1
    17    18    19   ar
    18    19    20   ar
    19    20    21   ar
    20    21    24    1
    21    24    25    1
    22    25    26   ar
    23    25    27   ar
    24    21    22   ar
    25    22    23   ar
    26     7     1   ar
    27    23    18   ar
    28    13     8   ar
    29    16    17    1
@<TRIPOS>MOLECULE
*****
 27 29 0 0 0
SMALL
GASTEIGER

@<TRIPOS>ATOM
      1 C          63.8744   89.2185   13.4296 C.ar    1  UNL1        0.0231
      2 C          63.4135   90.0819   12.2930 C.ar    1  UNL1        0.0597
      3 C          63.6743   91.5589   12.3195 C.3     1  UNL1        0.0519
      4 N          62.6919   89.4685   11.1298 N.ar    1  UNL1       -0.2307
      5 C          62.4311   87.9916   11.1033 C.ar    1  UNL1        0.1693
      6 N          62.8920   87.1281   12.2400 N.ar    1  UNL1       -0.2116
      7 C          63.6136   87.7416   13.4031 C.ar    1  UNL1        0.1309
      8 C          61.7095   87.3782    9.9402 C.ar    1  UNL1        0.0661
      9 C          62.2643   86.3469    9.0028 C.ar    1  UNL1        0.0110
     10 C          61.2040   86.0196    7.9935 C.ar    1  UNL1        0.0186
     11 C          59.9939   86.8487    8.3070 C.ar    1  UNL1        0.0871
     12 CL         58.6988   86.8397    7.5503 Cl      1  UNL1       -0.0752
     13 S          60.3063   87.6883    9.5101 S.2     1  UNL1       -0.0724
     14 C          63.8196   90.3701   15.7579 C.3     1  UNL1        0.0052
     15 C          64.5960   89.8319   14.5928 C.3     1  UNL1        0.0304
     16 N          64.0745   86.8780   14.5398 N.pl3   1  UNL1       -0.2981
     17 H          64.5000   87.2872   15.3277 H       1  UNL1        0.1536
     18 C          63.8870   85.3912   14.4760 C.ar    1  UNL1        0.0493
     19 C          64.7874   84.5580   13.6128 C.ar    1  UNL1        0.0143
     20 C          64.5999   83.0712   13.5491 C.ar    1  UNL1       -0.0026
     21 C          63.5120   82.4175   14.3484 C.ar    1  UNL1       -0.0165
     22 C          62.6116   83.2506   15.2116 C.ar    1  UNL1       -0.0026
     23 C          62.7991   84.7375   15.2754 C.ar    1  UNL1        0.0143
     24 C          63.3245   80.9306   14.2847 C.3     1  UNL1        0.0679
     25 C          62.1895   80.3510   13.4934 C.2     1  UNL1        0.0547
     26 O          62.4713   79.5070   12.2858 O.co2   1  UNL1       -0.5488
     27 O          60.7730   80.6155   13.9097 O.co2   1  UNL1       -0.5488
@<TRIPOS>UNITY_ATOM_ATTR
26 1
charge -1
@<TRIPOS>BOND
     1    14    15    1
     2    15     1    1
     3     1     2   ar
     4     2     3    1
     5     2     4   ar
     6     4     5   ar
     7     5     8    1
     8     8     9   ar
     9     9    10   ar
    10    10    11   ar
    11    11    12    1
    12    11    13   ar
    13     5     6   ar
    14     6     7   ar
    15     7    16    1
    16    16    18    1
    17    18    19   ar
    18    19    20   ar
    19    20    21   ar
    20    21    24    1
    21    24    25    1
    22    25    26   ar
    23    25    27   ar
    24    21    22   ar
    25    22    23   ar
    26     7     1   ar
    27    23    18   ar
    28    13     8   ar
    29    16    17    1
@<TRIPOS>MOLECULE
*****
 27 29 0 0 0
SMALL
GASTEIGER

@<TRIPOS>ATOM
      1 C          63.9324   86.0709   13.9344 C.ar    1  UNL1        0.0231
      2 C          63.7787   84.7960   13.1592 C.ar    1  UNL1        0.0597
      3 C          64.3142   83.5103   13.7163 C.3     1  UNL1        0.0519
      4 N          63.0896   84.8067   11.8269 N.ar    1  UNL1       -0.2307
      5 C          62.5542   86.0924   11.2698 C.ar    1  UNL1        0.1693
      6 N          62.7078   87.3673   12.0450 N.ar    1  UNL1       -0.2116
      7 C          63.3969   87.3565   13.3773 C.ar    1  UNL1        0.1309
      8 C          61.8651   86.1031    9.9375 C.ar    1  UNL1        0.0661
      9 C          62.4052   85.5301    8.6609 C.ar    1  UNL1        0.0110
     10 C          61.3888   85.7616    7.5823 C.ar    1  UNL1        0.0186
     11 C          60.2205   86.4777    8.1923 C.ar    1  UNL1        0.0871
     12 CL         58.9762   86.9074    7.4731 Cl      1  UNL1       -0.0752
     13 S          60.5148   86.6888    9.6480 S.2     1  UNL1       -0.0724
     14 C          63.8238   85.8664   16.5222 C.3     1  UNL1        0.0052
     15 C          64.6215   86.0601   15.2667 C.3     1  UNL1        0.0304
     16 N          63.5506   88.6315   14.1526 N.pl3   1  UNL1       -0.2981
     17 H          63.2864   88.6662   15.1003 H       1  UNL1        0.1536
     18 C          64.1068   89.8535   13.4838 C.ar    1  UNL1        0.0493
     19 C          63.5535   90.3038   12.1642 C.ar    1  UNL1        0.0143
     20 C          64.1097   91.5258   11.4955 C.ar    1  UNL1       -0.0026
     21 C          65.2192   92.2975   12.1462 C.ar    1  UNL1       -0.0165
     22 C          65.7725   91.8473   13.4656 C.ar    1  UNL1       -0.0026
     23 C          65.2163   90.6252   14.1345 C.ar    1  UNL1        0.0143
     24 C          65.7755   93.5195   11.4774 C.3     1  UNL1        0.0679
     25 C          66.8765   93.3862   10.4673 C.2     1  UNL1        0.0547
     26 O          66.8305   94.1843    9.1981 O.co2   1  UNL1       -0.5488
     27 O          68.0234   92.4549   10.7266 O.co2   1  UNL1       -0.5488
@<TRIPOS>UNITY_ATOM_ATTR
26 1
charge -1
@<TRIPOS>BOND
     1    14    15    1
     2    15     1    1
     3     1     2   ar
     4     2     3    1
     5     2     4   ar
     6     4     5   ar
     7     5     8    1
     8     8     9   ar
     9     9    10   ar
    10    10    11   ar
    11    11    12    1
    12    11    13   ar
    13     5     6   ar
    14     6     7   ar
    15     7    16    1
    16    16    18    1
    17    18    19   ar
    18    19    20   ar
    19    20    21   ar
    20    21    24    1
    21    24    25    1
    22    25    26   ar
    23    25    27   ar
    24    21    22   ar
    25    22    23   ar
    26     7     1   ar
    27    23    18   ar
    28    13     8   ar
    29    16    17    1
@<TRIPOS>MOLECULE
*****
 27 29 0 0 0
SMALL
GASTEIGER

@<TRIPOS>ATOM
      1 C          63.6144   87.3590   13.4511 C.ar    1  UNL1        0.0231
      2 C          63.2493   86.0822   12.7536 C.ar    1  UNL1        0.0597
      3 C          63.7354   84.7687   13.2907 C.3     1  UNL1        0.0519
      4 N          62.3982   86.1189   11.5190 N.ar    1  UNL1       -0.2307
      5 C          61.9121   87.4324   10.9819 C.ar    1  UNL1        0.1693
      6 N          62.2771   88.7091   11.6794 N.ar    1  UNL1       -0.2116
      7 C          63.1283   88.6724   12.9140 C.ar    1  UNL1        0.1309
      8 C          61.0609   87.4691    9.7474 C.ar    1  UNL1        0.0661
      9 C          60.5475   86.2775    8.9946 C.ar    1  UNL1        0.0110
     10 C          59.7430   86.7758    7.8308 C.ar    1  UNL1        0.0186
     11 C          59.7592   88.2753    7.8642 C.ar    1  UNL1        0.0871
     12 CL         59.0801   89.1864    6.8851 Cl      1  UNL1       -0.0752
     13 S          60.5737   88.7038    9.0487 S.2     1  UNL1       -0.0724
     14 C          63.8309   87.1103   16.0281 C.3     1  UNL1        0.0052
     15 C          64.4656   87.3223   14.6857 C.3     1  UNL1        0.0304
     16 N          63.4934   89.9493   13.6115 N.pl3   1  UNL1       -0.2981
     17 H          63.2241   90.0933   14.5475 H       1  UNL1        0.1536
     18 C          64.2686   91.0067   12.8830 C.ar    1  UNL1        0.0493
     19 C          65.3820   91.7331   13.5779 C.ar    1  UNL1        0.0143
     20 C          66.1573   92.7905   12.8493 C.ar    1  UNL1       -0.0026
     21 C          65.8192   93.1216   11.4259 C.ar    1  UNL1       -0.0165
     22 C          64.7059   92.3953   10.7310 C.ar    1  UNL1       -0.0026
     23 C          63.9305   91.3378   11.4596 C.ar    1  UNL1        0.0143
     24 C          66.5944   94.1790   10.6974 C.3     1  UNL1        0.0679
     25 C          66.1225   95.6028   10.7173 C.2     1  UNL1        0.0547
     26 O          65.7649   96.2924    9.4341 O.co2   1  UNL1       -0.5488
     27 O          66.0080   96.3368   12.0204 O.co2   1  UNL1       -0.5488
@<TRIPOS>UNITY_ATOM_ATTR
26 1
charge -1
@<TRIPOS>BOND
     1    14    15    1
     2    15     1    1
     3     1     2   ar
     4     2     3    1
     5     2     4   ar
     6     4     5   ar
     7     5     8    1
     8     8     9   ar
     9     9    10   ar
    10    10    11   ar
    11    11    12    1
    12    11    13   ar
    13     5     6   ar
    14     6     7   ar
    15     7    16    1
    16    16    18    1
    17    18    19   ar
    18    19    20   ar
    19    20    21   ar
    20    21    24    1
    21    24    25    1
    22    25    26   ar
    23    25    27   ar
    24    21    22   ar
    25    22    23   ar
    26     7     1   ar
    27    23    18   ar
    28    13     8   ar
    29    16    17    1
@<TRIPOS>MOLECULE
*****
 27 29 0 0 0
SMALL
GASTEIGER

@<TRIPOS>ATOM
      1 C          63.7068   83.9581   12.4776 C.ar    1  UNL1        0.0231
      2 C          63.3660   83.6543   11.0488 C.ar    1  UNL1        0.0597
      3 C          63.7627   82.3390   10.4465 C.3     1  UNL1        0.0519
      4 N          62.6286   84.6657   10.2222 N.ar    1  UNL1       -0.2307
      5 C          62.2320   85.9810   10.8244 C.ar    1  UNL1        0.1693
      6 N          62.5727   86.2848   12.2533 N.ar    1  UNL1       -0.2116
      7 C          63.3101   85.2734   13.0798 C.ar    1  UNL1        0.1309
      8 C          61.4946   86.9924    9.9979 C.ar    1  UNL1        0.0661
      9 C          61.6759   88.4803   10.0567 C.ar    1  UNL1        0.0110
     10 C          60.7398   89.1010    9.0625 C.ar    1  UNL1        0.0186
     11 C          59.9799   87.9968    8.3892 C.ar    1  UNL1        0.0871
     12 CL         58.9367   88.1660    7.3248 Cl      1  UNL1       -0.0752
     13 S          60.4464   86.6936    8.9673 S.2     1  UNL1       -0.0724
     14 C          63.7081   81.7815   13.8961 C.3     1  UNL1        0.0052
     15 C          64.4442   82.9467   13.3042 C.3     1  UNL1        0.0304
     16 N          63.6509   85.5773   14.5087 N.pl3   1  UNL1       -0.2981
     17 H          63.8236   84.8424   15.1406 H       1  UNL1        0.1536
     18 C          63.7285   87.0009   14.9748 C.ar    1  UNL1        0.0493
     19 C          63.1657   87.3842   16.3114 C.ar    1  UNL1        0.0143
     20 C          63.2433   88.8078   16.7775 C.ar    1  UNL1       -0.0026
     21 C          63.8836   89.8482   15.9070 C.ar    1  UNL1       -0.0165
     22 C          64.4464   89.4649   14.5705 C.ar    1  UNL1       -0.0026
     23 C          64.3688   88.0412   14.1044 C.ar    1  UNL1        0.0143
     24 C          63.9612   91.2718   16.3731 C.3     1  UNL1        0.0679
     25 C          65.0668   92.1611   15.8865 C.2     1  UNL1        0.0547
     26 O          66.0512   92.7358   16.8615 O.co2   1  UNL1       -0.5488
     27 O          65.1879   92.4758   14.4249 O.co2   1  UNL1       -0.5488
@<TRIPOS>UNITY_ATOM_ATTR
26 1
charge -1
@<TRIPOS>BOND
     1    14    15    1
     2    15     1    1
     3     1     2   ar
     4     2     3    1
     5     2     4   ar
     6     4     5   ar
     7     5     8    1
     8     8     9   ar
     9     9    10   ar
    10    10    11   ar
    11    11    12    1
    12    11    13   ar
    13     5     6   ar
    14     6     7   ar
    15     7    16    1
    16    16    18    1
    17    18    19   ar
    18    19    20   ar
    19    20    21   ar
    20    21    24    1
    21    24    25    1
    22    25    26   ar
    23    25    27   ar
    24    21    22   ar
    25    22    23   ar
    26     7     1   ar
    27    23    18   ar
    28    13     8   ar
    29    16    17    1
