@<TRIPOS>MOLECULE
*****
 39 42 0 0 0
SMALL
GASTEIGER

@<TRIPOS>ATOM
      1 C          63.9634   86.3416   15.5645 C.ar    1  UNL1        0.0611
      2 C          63.2497   85.8966   16.8066 C.ar    1  UNL1        0.1037
      3 N          62.7919   87.1212   17.5419 N.ar    1  UNL1       -0.2269
      4 C          63.2226   88.3230   16.7544 C.ar    1  UNL1        0.1407
      5 N          63.0490   89.7938   16.9923 N.ar    1  UNL1       -0.3374
      6 C          63.5995   90.7827   16.0080 C.ar    1  UNL1        0.0734
      7 C          64.3235   90.3009   14.7859 C.ar    1  UNL1        0.0171
      8 C          64.4971   88.8301   14.5480 C.ar    1  UNL1        0.0046
      9 C          63.9466   87.8412   15.5323 C.ar    1  UNL1        0.0386
     10 H          62.5738   90.1100   17.7944 H       1  UNL1        0.1674
     11 C          64.8740   91.2900   13.8015 C.ar    1  UNL1        0.0015
     12 C          65.9770   92.2206   14.2105 C.ar    1  UNL1        0.0014
     13 C          66.5274   93.2097   13.2262 C.ar    1  UNL1        0.0183
     14 C          65.9749   93.2680   11.8329 C.ar    1  UNL1        0.1057
     15 C          64.8719   92.3373   11.4239 C.ar    1  UNL1        0.0183
     16 C          64.3215   91.3483   12.4082 C.ar    1  UNL1        0.0014
     17 S          66.5253   94.2570   10.8486 S.O2    1  UNL1        0.0087
     18 O          66.8994   93.1330    9.9285 O.2     1  UNL1       -0.1686
     19 O          66.1512   95.3810   11.7688 O.2     1  UNL1       -0.1686
     20 C          67.0757   95.2460    9.8643 C.3     1  UNL1        0.1560
     21 C          67.4985   94.7898    8.4994 C.3     1  UNL1        0.0276
     22 C          64.5848   85.4445   14.5354 C.2     1  UNL1        0.2015
     23 O          66.0182   85.0251   14.6733 O.2     1  UNL1       -0.2864
     24 C          62.4206   85.4762   11.2088 C.ar    1  UNL1        0.0920
     25 C          62.1482   84.0116   11.0339 C.ar    1  UNL1        0.0204
     26 C          62.6879   83.0246   12.0262 C.ar    1  UNL1        0.0312
     27 C          63.5001   83.5022   13.1933 C.ar    1  UNL1        0.1454
     28 F          64.0399   82.5152   14.1855 F       1  UNL1       -0.2040
     29 C          63.7725   84.9668   13.3682 C.ar    1  UNL1        0.0951
     30 C          63.2328   85.9538   12.3760 C.ar    1  UNL1        0.1598
     31 F          63.5052   87.4185   12.5509 F       1  UNL1       -0.2026
     32 N          61.8808   86.4632   10.2166 N.pl3   1  UNL1       -0.2166
     33 H          61.7347   87.3996   10.4833 H       1  UNL1        0.1734
     34 S          61.5636   86.0235    8.8180 S.O2    1  UNL1        0.0540
     35 O          60.1079   86.2879    9.0651 O.2     1  UNL1       -0.1545
     36 O          63.0193   85.7592    8.5710 O.2     1  UNL1       -0.1545
     37 C          61.2466   85.5839    7.4195 C.3     1  UNL1        0.1724
     38 C          61.8492   84.1216    5.3581 C.3     1  UNL1        0.0019
     39 C          62.2551   84.8003    6.6327 C.3     1  UNL1        0.0273
@<TRIPOS>BOND
     1    38    39    1
     2    39    37    1
     3    37    34    1
     4    34    35    2
     5    34    36    2
     6    34    32    1
     7    32    24    1
     8    24    25   ar
     9    25    26   ar
    10    26    27   ar
    11    27    28    1
    12    27    29   ar
    13    29    22    1
    14    22    23    2
    15    22     1    1
    16     1     2   ar
    17     2     3   ar
    18     3     4   ar
    19     4     5   ar
    20     5     6   ar
    21     6     7   ar
    22     7    11    1
    23    11    12   ar
    24    12    13   ar
    25    13    14   ar
    26    14    17    1
    27    17    18    2
    28    17    19    2
    29    17    20    1
    30    20    21    1
    31    14    15   ar
    32    15    16   ar
    33     7     8   ar
    34     8     9   ar
    35    29    30   ar
    36    30    31    1
    37    30    24   ar
    38     9     1   ar
    39     9     4    1
    40    16    11   ar
    41    32    33    1
    42     5    10    1
@<TRIPOS>MOLECULE
*****
 39 42 0 0 0
SMALL
GASTEIGER

@<TRIPOS>ATOM
      1 C          64.0090   86.4331   15.6829 C.ar    1  UNL1        0.0611
      2 C          63.2160   86.0552   16.8987 C.ar    1  UNL1        0.1037
      3 N          62.6960   87.3161   17.5232 N.ar    1  UNL1       -0.2269
      4 C          63.1677   88.4731   16.6933 C.ar    1  UNL1        0.1407
      5 N          62.9631   89.9531   16.8264 N.ar    1  UNL1       -0.3374
      6 C          63.5700   90.8874   15.8221 C.ar    1  UNL1        0.0734
      7 C          64.3815   90.3417   14.6846 C.ar    1  UNL1        0.0171
      8 C          64.5861   88.8617   14.5516 C.ar    1  UNL1        0.0046
      9 C          63.9792   87.9274   15.5559 C.ar    1  UNL1        0.0386
     10 H          62.4306   90.3113   17.5729 H       1  UNL1        0.1674
     11 C          64.9884   91.2760   13.6803 C.ar    1  UNL1        0.0015
     12 C          66.2700   91.9881   13.9970 C.ar    1  UNL1        0.0014
     13 C          66.8770   92.9225   12.9926 C.ar    1  UNL1        0.0183
     14 C          66.2022   93.1447   11.6715 C.ar    1  UNL1        0.1057
     15 C          64.9205   92.4326   11.3548 C.ar    1  UNL1        0.0183
     16 C          64.3137   91.4983   12.3592 C.ar    1  UNL1        0.0014
     17 S          66.8091   94.0790   10.6672 S.O2    1  UNL1        0.0087
     18 O          67.9297   93.1080   10.4410 O.2     1  UNL1       -0.1686
     19 O          65.6884   95.0500   10.8933 O.2     1  UNL1       -0.1686
     20 C          67.4159   95.0133    9.6628 C.3     1  UNL1        0.1560
     21 C          67.2300   94.7612    8.1959 C.3     1  UNL1        0.0276
     22 C          64.7090   85.4834   14.7566 C.2     1  UNL1        0.2015
     23 O          66.2021   85.3501   14.8070 O.2     1  UNL1       -0.2864
     24 C          62.5546   84.4952   11.5734 C.ar    1  UNL1        0.0920
     25 C          62.3292   83.0339   11.8262 C.ar    1  UNL1        0.0204
     26 C          62.8970   82.3891   13.0558 C.ar    1  UNL1        0.0312
     27 C          63.6903   83.2056   14.0326 C.ar    1  UNL1        0.1454
     28 F          64.2581   82.5608   15.2621 F       1  UNL1       -0.2040
     29 C          63.9157   84.6668   13.7797 C.ar    1  UNL1        0.0951
     30 C          63.3478   85.3116   12.5502 C.ar    1  UNL1        0.1598
     31 F          63.5733   86.7729   12.2975 F       1  UNL1       -0.2026
     32 N          61.9867   85.1399   10.3439 N.pl3   1  UNL1       -0.2166
     33 H          61.8441   84.6059    9.5292 H       1  UNL1        0.1734
     34 S          61.6362   86.5983   10.3556 S.O2    1  UNL1        0.0540
     35 O          60.8403   86.3969   11.6109 O.2     1  UNL1       -0.1545
     36 O          62.4321   86.7997    9.1002 O.2     1  UNL1       -0.1545
     37 C          61.2857   88.0567   10.3672 C.3     1  UNL1        0.1724
     38 C          62.0169   90.5235   10.0053 C.3     1  UNL1        0.0019
     39 C          62.3693   89.0893   10.2679 C.3     1  UNL1        0.0273
@<TRIPOS>BOND
     1    38    39    1
     2    39    37    1
     3    37    34    1
     4    34    35    2
     5    34    36    2
     6    34    32    1
     7    32    24    1
     8    24    25   ar
     9    25    26   ar
    10    26    27   ar
    11    27    28    1
    12    27    29   ar
    13    29    22    1
    14    22    23    2
    15    22     1    1
    16     1     2   ar
    17     2     3   ar
    18     3     4   ar
    19     4     5   ar
    20     5     6   ar
    21     6     7   ar
    22     7    11    1
    23    11    12   ar
    24    12    13   ar
    25    13    14   ar
    26    14    17    1
    27    17    18    2
    28    17    19    2
    29    17    20    1
    30    20    21    1
    31    14    15   ar
    32    15    16   ar
    33     7     8   ar
    34     8     9   ar
    35    29    30   ar
    36    30    31    1
    37    30    24   ar
    38     9     1   ar
    39     9     4    1
    40    16    11   ar
    41    32    33    1
    42     5    10    1
@<TRIPOS>MOLECULE
*****
 39 42 0 0 0
SMALL
GASTEIGER

@<TRIPOS>ATOM
      1 C          61.5584   86.3711    9.2937 C.ar    1  UNL1        0.0611
      2 C          60.2078   86.2020    8.6634 C.ar    1  UNL1        0.1037
      3 N          59.4122   87.4450    8.9316 N.ar    1  UNL1       -0.2269
      4 C          60.2711   88.3823    9.7276 C.ar    1  UNL1        0.1407
      5 N          60.0168   89.7545   10.2776 N.ar    1  UNL1       -0.3374
      6 C          61.0888   90.4629   11.0514 C.ar    1  UNL1        0.0734
      7 C          62.4152   89.7991   11.2752 C.ar    1  UNL1        0.0171
      8 C          62.6696   88.4270   10.7252 C.ar    1  UNL1        0.0046
      9 C          61.5975   87.7186    9.9514 C.ar    1  UNL1        0.0386
     10 H          59.1462   90.1901   10.1308 H       1  UNL1        0.1674
     11 C          63.4874   90.5076   12.0490 C.ar    1  UNL1        0.0015
     12 C          64.2212   91.6604   11.4307 C.ar    1  UNL1        0.0014
     13 C          65.2933   92.3689   12.2045 C.ar    1  UNL1        0.0183
     14 C          65.6315   91.9245   13.5967 C.ar    1  UNL1        0.1057
     15 C          64.8975   90.7716   14.2150 C.ar    1  UNL1        0.0183
     16 C          63.8255   90.0632   13.4412 C.ar    1  UNL1        0.0014
     17 S          66.7035   92.6329   14.3705 S.O2    1  UNL1        0.0087
     18 O          65.7675   92.7790   15.5335 O.2     1  UNL1       -0.1686
     19 O          67.6395   92.4868   13.2075 O.2     1  UNL1       -0.1686
     20 C          67.7756   93.3413   15.1443 C.3     1  UNL1        0.1560
     21 C          68.7176   92.5582   16.0100 C.3     1  UNL1        0.0276
     22 C          62.6740   85.3687    9.2703 C.2     1  UNL1        0.2015
     23 O          63.4535   85.1432    8.0088 O.2     1  UNL1       -0.2864
     24 C          62.6924   84.1627   13.0513 C.ar    1  UNL1        0.0920
     25 C          63.6824   83.0377   12.9852 C.ar    1  UNL1        0.0204
     26 C          64.3362   82.6897   11.6808 C.ar    1  UNL1        0.0312
     27 C          64.0001   83.4666   10.4425 C.ar    1  UNL1        0.1454
     28 F          64.6539   83.1186    9.1381 F       1  UNL1       -0.2040
     29 C          63.0101   84.5916   10.5087 C.ar    1  UNL1        0.0951
     30 C          62.3564   84.9396   11.8130 C.ar    1  UNL1        0.1598
     31 F          61.3664   86.0647   11.8791 F       1  UNL1       -0.2026
     32 N          62.0386   84.5107   14.3557 N.pl3   1  UNL1       -0.2166
     33 H          61.0952   84.2763   14.5115 H       1  UNL1        0.1734
     34 S          62.8222   85.2159   15.4227 S.O2    1  UNL1        0.0540
     35 O          62.1485   84.3799   16.4701 O.2     1  UNL1       -0.1545
     36 O          63.4960   86.0520   14.3754 O.2     1  UNL1       -0.1545
     37 C          63.6059   85.9212   16.4897 C.3     1  UNL1        0.1724
     38 C          63.0552   88.3982   17.0480 C.3     1  UNL1        0.0019
     39 C          62.9345   86.9372   17.3656 C.3     1  UNL1        0.0273
@<TRIPOS>BOND
     1    38    39    1
     2    39    37    1
     3    37    34    1
     4    34    35    2
     5    34    36    2
     6    34    32    1
     7    32    24    1
     8    24    25   ar
     9    25    26   ar
    10    26    27   ar
    11    27    28    1
    12    27    29   ar
    13    29    22    1
    14    22    23    2
    15    22     1    1
    16     1     2   ar
    17     2     3   ar
    18     3     4   ar
    19     4     5   ar
    20     5     6   ar
    21     6     7   ar
    22     7    11    1
    23    11    12   ar
    24    12    13   ar
    25    13    14   ar
    26    14    17    1
    27    17    18    2
    28    17    19    2
    29    17    20    1
    30    20    21    1
    31    14    15   ar
    32    15    16   ar
    33     7     8   ar
    34     8     9   ar
    35    29    30   ar
    36    30    31    1
    37    30    24   ar
    38     9     1   ar
    39     9     4    1
    40    16    11   ar
    41    32    33    1
    42     5    10    1
@<TRIPOS>MOLECULE
*****
 39 42 0 0 0
SMALL
GASTEIGER

@<TRIPOS>ATOM
      1 C          64.1365   86.6630   15.6860 C.ar    1  UNL1        0.0611
      2 C          63.3572   86.2449   16.8975 C.ar    1  UNL1        0.1037
      3 N          62.7695   87.4772   17.5186 N.ar    1  UNL1       -0.2269
      4 C          63.1855   88.6570   16.6910 C.ar    1  UNL1        0.1407
      5 N          62.9042   90.1245   16.8224 N.ar    1  UNL1       -0.3374
      6 C          63.4677   91.0888   15.8211 C.ar    1  UNL1        0.0734
      7 C          64.3126   90.5856   14.6885 C.ar    1  UNL1        0.0171
      8 C          64.5940   89.1181   14.5571 C.ar    1  UNL1        0.0046
      9 C          64.0304   88.1538   15.5583 C.ar    1  UNL1        0.0386
     10 H          62.3497   90.4548   17.5658 H       1  UNL1        0.1674
     11 C          64.8762   91.5499   13.6872 C.ar    1  UNL1        0.0015
     12 C          65.9333   92.5298   14.1023 C.ar    1  UNL1        0.0014
     13 C          66.4968   93.4942   13.1010 C.ar    1  UNL1        0.0183
     14 C          66.0033   93.4786   11.6846 C.ar    1  UNL1        0.1057
     15 C          64.9461   92.4986   11.2695 C.ar    1  UNL1        0.0183
     16 C          64.3826   91.5343   12.2708 C.ar    1  UNL1        0.0014
     17 S          66.5668   94.4429   10.6834 S.O2    1  UNL1        0.0087
     18 O          66.9276   93.2980    9.7839 O.2     1  UNL1       -0.1686
     19 O          66.2060   95.5877   11.5829 O.2     1  UNL1       -0.1686
     20 C          67.1303   95.4071    9.6821 C.3     1  UNL1        0.1560
     21 C          67.5383   94.9233    8.3222 C.3     1  UNL1        0.0276
     22 C          64.8897   85.7506   14.7639 C.2     1  UNL1        0.2015
     23 O          66.3864   85.6817   14.8345 O.2     1  UNL1       -0.2864
     24 C          63.4283   82.5683   12.8964 C.ar    1  UNL1        0.0920
     25 C          62.6591   83.2199   11.7857 C.ar    1  UNL1        0.0204
     26 C          62.6334   84.7150   11.6677 C.ar    1  UNL1        0.0312
     27 C          63.3769   85.5586   12.6604 C.ar    1  UNL1        0.1454
     28 F          63.3512   87.0537   12.5424 F       1  UNL1       -0.2040
     29 C          64.1461   84.9070   13.7711 C.ar    1  UNL1        0.0951
     30 C          64.1718   83.4119   13.8891 C.ar    1  UNL1        0.1598
     31 F          64.9411   82.7604   14.9998 F       1  UNL1       -0.2026
     32 N          63.4540   81.0732   13.0143 N.pl3   1  UNL1       -0.2166
     33 H          64.2773   80.5767   12.8023 H       1  UNL1        0.1734
     34 S          62.2253   80.3345   13.4554 S.O2    1  UNL1        0.0540
     35 O          62.3903   79.3775   12.3122 O.2     1  UNL1       -0.1545
     36 O          62.0604   81.2914   14.5986 O.2     1  UNL1       -0.1545
     37 C          60.9966   79.5958   13.8965 C.3     1  UNL1        0.1724
     38 C          58.5114   79.6138   14.6538 C.3     1  UNL1        0.0019
     39 C          59.7497   80.3541   14.2435 C.3     1  UNL1        0.0273
@<TRIPOS>BOND
     1    38    39    1
     2    39    37    1
     3    37    34    1
     4    34    35    2
     5    34    36    2
     6    34    32    1
     7    32    24    1
     8    24    25   ar
     9    25    26   ar
    10    26    27   ar
    11    27    28    1
    12    27    29   ar
    13    29    22    1
    14    22    23    2
    15    22     1    1
    16     1     2   ar
    17     2     3   ar
    18     3     4   ar
    19     4     5   ar
    20     5     6   ar
    21     6     7   ar
    22     7    11    1
    23    11    12   ar
    24    12    13   ar
    25    13    14   ar
    26    14    17    1
    27    17    18    2
    28    17    19    2
    29    17    20    1
    30    20    21    1
    31    14    15   ar
    32    15    16   ar
    33     7     8   ar
    34     8     9   ar
    35    29    30   ar
    36    30    31    1
    37    30    24   ar
    38     9     1   ar
    39     9     4    1
    40    16    11   ar
    41    32    33    1
    42     5    10    1
@<TRIPOS>MOLECULE
*****
 39 42 0 0 0
SMALL
GASTEIGER

@<TRIPOS>ATOM
      1 C          63.4006   85.1640   14.7350 C.ar    1  UNL1        0.0611
      2 C          62.7312   84.5822   15.9447 C.ar    1  UNL1        0.1037
      3 N          62.4494   85.7021   16.9020 N.ar    1  UNL1       -0.2269
      4 C          62.9446   86.9759   16.2840 C.ar    1  UNL1        0.1407
      5 N          62.9362   88.3958   16.7677 N.ar    1  UNL1       -0.3374
      6 C          63.5156   89.4830   15.9121 C.ar    1  UNL1        0.0734
      7 C          64.1036   89.1504   14.5728 C.ar    1  UNL1        0.0171
      8 C          64.1120   87.7306   14.0891 C.ar    1  UNL1        0.0046
      9 C          63.5325   86.6434   14.9447 C.ar    1  UNL1        0.0386
     10 H          62.5503   88.6140   17.6467 H       1  UNL1        0.1674
     11 C          64.6831   90.2377   13.7172 C.ar    1  UNL1        0.0015
     12 C          64.0130   90.6165   12.4298 C.ar    1  UNL1        0.0014
     13 C          64.5925   91.7038   11.5742 C.ar    1  UNL1        0.0183
     14 C          65.8421   92.4123   12.0061 C.ar    1  UNL1        0.1057
     15 C          66.5122   92.0335   13.2935 C.ar    1  UNL1        0.0183
     16 C          65.9327   90.9462   14.1491 C.ar    1  UNL1        0.0014
     17 S          66.4216   93.4996   11.1505 S.O2    1  UNL1        0.0087
     18 O          67.7620   92.8287   11.2059 O.2     1  UNL1       -0.1686
     19 O          65.0812   94.1705   11.0952 O.2     1  UNL1       -0.1686
     20 C          67.0011   94.5869   10.2950 C.3     1  UNL1        0.1560
     21 C          68.0943   94.2701    9.3180 C.3     1  UNL1        0.0276
     22 C          63.8579   84.4004   13.5276 C.2     1  UNL1        0.2015
     23 O          64.8756   83.3080   13.6720 O.2     1  UNL1       -0.2864
     24 C          61.5226   85.9309   10.7073 C.ar    1  UNL1        0.0920
     25 C          62.1765   85.3869    9.4717 C.ar    1  UNL1        0.0204
     26 C          63.3909   84.5141    9.5882 C.ar    1  UNL1        0.0312
     27 C          63.9514   84.1853   10.9401 C.ar    1  UNL1        0.1454
     28 F          65.1657   83.3125   11.0565 F       1  UNL1       -0.2040
     29 C          63.2974   84.7292   12.1756 C.ar    1  UNL1        0.0951
     30 C          62.0831   85.6020   12.0591 C.ar    1  UNL1        0.1598
     31 F          61.4292   86.1460   13.2947 F       1  UNL1       -0.2026
     32 N          60.3082   86.8037   10.5908 N.pl3   1  UNL1       -0.2166
     33 H          59.5481   86.6737   11.2029 H       1  UNL1        0.1734
     34 S          60.2520   87.8745    9.5419 S.O2    1  UNL1        0.0540
     35 O          59.2549   87.0641    8.7680 O.2     1  UNL1       -0.1545
     36 O          61.2491   88.6849   10.3159 O.2     1  UNL1       -0.1545
     37 C          60.1959   88.9453    8.4931 C.3     1  UNL1        0.1724
     38 C          59.3185   89.8088    6.2051 C.3     1  UNL1        0.0019
     39 C          59.3360   88.7607    7.2780 C.3     1  UNL1        0.0273
@<TRIPOS>BOND
     1    38    39    1
     2    39    37    1
     3    37    34    1
     4    34    35    2
     5    34    36    2
     6    34    32    1
     7    32    24    1
     8    24    25   ar
     9    25    26   ar
    10    26    27   ar
    11    27    28    1
    12    27    29   ar
    13    29    22    1
    14    22    23    2
    15    22     1    1
    16     1     2   ar
    17     2     3   ar
    18     3     4   ar
    19     4     5   ar
    20     5     6   ar
    21     6     7   ar
    22     7    11    1
    23    11    12   ar
    24    12    13   ar
    25    13    14   ar
    26    14    17    1
    27    17    18    2
    28    17    19    2
    29    17    20    1
    30    20    21    1
    31    14    15   ar
    32    15    16   ar
    33     7     8   ar
    34     8     9   ar
    35    29    30   ar
    36    30    31    1
    37    30    24   ar
    38     9     1   ar
    39     9     4    1
    40    16    11   ar
    41    32    33    1
    42     5    10    1
@<TRIPOS>MOLECULE
*****
 39 42 0 0 0
SMALL
GASTEIGER

@<TRIPOS>ATOM
      1 C          63.8339   89.6273   14.6209 C.ar    1  UNL1        0.0611
      2 C          63.7832   90.4898   15.8471 C.ar    1  UNL1        0.1037
      3 N          63.4879   89.6066   17.0230 N.ar    1  UNL1       -0.2269
      4 C          63.3561   88.1983   16.5236 C.ar    1  UNL1        0.1407
      5 N          63.0690   86.9060   17.2289 N.ar    1  UNL1       -0.3374
      6 C          62.9957   85.6265   16.4495 C.ar    1  UNL1        0.0734
      7 C          63.2096   85.6393   14.9649 C.ar    1  UNL1        0.0171
      8 C          63.4967   86.9316   14.2596 C.ar    1  UNL1        0.0046
      9 C          63.5699   88.2111   15.0390 C.ar    1  UNL1        0.0386
     10 H          62.9286   86.8976   18.2033 H       1  UNL1        0.1674
     11 C          63.1363   84.3597   14.1855 C.ar    1  UNL1        0.0015
     12 C          63.9443   84.1976   12.9322 C.ar    1  UNL1        0.0014
     13 C          63.8710   82.9180   12.1529 C.ar    1  UNL1        0.0183
     14 C          62.9898   81.8005   12.6269 C.ar    1  UNL1        0.1057
     15 C          62.1818   81.9627   13.8803 C.ar    1  UNL1        0.0183
     16 C          62.2551   83.2422   14.6596 C.ar    1  UNL1        0.0014
     17 S          62.9165   80.5210   11.8477 S.O2    1  UNL1        0.0087
     18 O          62.4591   79.7971   13.0792 O.2     1  UNL1       -0.1686
     19 O          63.3739   81.2448   10.6161 O.2     1  UNL1       -0.1686
     20 C          62.8432   79.2414   11.0684 C.3     1  UNL1        0.1560
     21 C          62.7955   79.2777    9.5696 C.3     1  UNL1        0.0276
     22 C          64.1016   90.0983   13.2221 C.2     1  UNL1        0.2015
     23 O          63.4863   89.3798   12.0581 O.2     1  UNL1       -0.2864
     24 C          65.5733   93.4187   11.6223 C.ar    1  UNL1        0.0920
     25 C          66.7507   93.6671   12.5179 C.ar    1  UNL1        0.0204
     26 C          67.0450   92.7260   13.6482 C.ar    1  UNL1        0.0312
     27 C          66.1620   91.5364   13.8830 C.ar    1  UNL1        0.1454
     28 F          66.4564   90.5953   15.0133 F       1  UNL1       -0.2040
     29 C          64.9847   91.2880   12.9874 C.ar    1  UNL1        0.0951
     30 C          64.6903   92.2291   11.8571 C.ar    1  UNL1        0.1598
     31 F          63.5129   91.9806   10.9615 F       1  UNL1       -0.2026
     32 N          65.2790   94.3599   10.4920 N.pl3   1  UNL1       -0.2166
     33 H          64.3615   94.4397   10.1441 H       1  UNL1        0.1734
     34 S          66.3826   95.1794    9.8918 S.O2    1  UNL1        0.0540
     35 O          66.8793   93.9710    9.1550 O.2     1  UNL1       -0.1545
     36 O          65.8860   96.3879   10.6286 O.2     1  UNL1       -0.1545
     37 C          67.4862   95.9990    9.2916 C.3     1  UNL1        0.1724
     38 C          65.9468   96.6729    7.3101 C.3     1  UNL1        0.0019
     39 C          67.2174   96.8516    8.0870 C.3     1  UNL1        0.0273
@<TRIPOS>BOND
     1    38    39    1
     2    39    37    1
     3    37    34    1
     4    34    35    2
     5    34    36    2
     6    34    32    1
     7    32    24    1
     8    24    25   ar
     9    25    26   ar
    10    26    27   ar
    11    27    28    1
    12    27    29   ar
    13    29    22    1
    14    22    23    2
    15    22     1    1
    16     1     2   ar
    17     2     3   ar
    18     3     4   ar
    19     4     5   ar
    20     5     6   ar
    21     6     7   ar
    22     7    11    1
    23    11    12   ar
    24    12    13   ar
    25    13    14   ar
    26    14    17    1
    27    17    18    2
    28    17    19    2
    29    17    20    1
    30    20    21    1
    31    14    15   ar
    32    15    16   ar
    33     7     8   ar
    34     8     9   ar
    35    29    30   ar
    36    30    31    1
    37    30    24   ar
    38     9     1   ar
    39     9     4    1
    40    16    11   ar
    41    32    33    1
    42     5    10    1
@<TRIPOS>MOLECULE
*****
 39 42 0 0 0
SMALL
GASTEIGER

@<TRIPOS>ATOM
      1 C          64.6968   91.0056   14.9788 C.ar    1  UNL1        0.0611
      2 C          64.4210   92.0926   15.9749 C.ar    1  UNL1        0.1037
      3 N          63.7144   91.4787   17.1470 N.ar    1  UNL1       -0.2269
      4 C          63.5536   90.0123   16.8753 C.ar    1  UNL1        0.1407
      5 N          62.9327   88.9056   17.6750 N.ar    1  UNL1       -0.3374
      6 C          62.9190   87.5064   17.1346 C.ar    1  UNL1        0.0734
      7 C          63.5262   87.2140   15.7946 C.ar    1  UNL1        0.0171
      8 C          64.1471   88.3207   14.9949 C.ar    1  UNL1        0.0046
      9 C          64.1608   89.7199   15.5353 C.ar    1  UNL1        0.0386
     10 H          62.5342   89.0975   18.5546 H       1  UNL1        0.1674
     11 C          63.5125   85.8147   15.2542 C.ar    1  UNL1        0.0015
     12 C          62.4112   84.8724   15.6402 C.ar    1  UNL1        0.0014
     13 C          62.3975   83.4731   15.0998 C.ar    1  UNL1        0.0183
     14 C          63.4851   83.0162   14.1734 C.ar    1  UNL1        0.1057
     15 C          64.5865   83.9586   13.7874 C.ar    1  UNL1        0.0183
     16 C          64.6002   85.3578   14.3278 C.ar    1  UNL1        0.0014
     17 S          63.4715   81.6171   13.6331 S.O2    1  UNL1        0.0087
     18 O          62.4330   81.2359   14.6461 O.2     1  UNL1       -0.1686
     19 O          64.5099   81.9982   12.6200 O.2     1  UNL1       -0.1686
     20 C          63.4578   80.2179   13.0927 C.3     1  UNL1        0.1560
     21 C          62.7593   79.9203   11.7990 C.3     1  UNL1        0.0276
     22 C          65.3875   91.1746   13.6580 C.2     1  UNL1        0.2015
     23 O          66.8854   91.2206   13.5954 O.2     1  UNL1       -0.2864
     24 C          62.4634   90.6992   11.0172 C.ar    1  UNL1        0.0920
     25 C          62.9655   91.5433    9.8833 C.ar    1  UNL1        0.0204
     26 C          64.2748   92.2644   10.0077 C.ar    1  UNL1        0.0312
     27 C          65.0822   92.1415   11.2659 C.ar    1  UNL1        0.1454
     28 F          66.3916   92.8626   11.3903 F       1  UNL1       -0.2040
     29 C          64.5801   91.2975   12.3997 C.ar    1  UNL1        0.0951
     30 C          63.2707   90.5764   12.2753 C.ar    1  UNL1        0.1598
     31 F          62.7687   89.7323   13.4092 F       1  UNL1       -0.2026
     32 N          61.1540   89.9781   10.8928 N.pl3   1  UNL1       -0.2166
     33 H          60.3184   90.4888   10.7916 H       1  UNL1        0.1734
     34 S          61.1177   88.4789   10.9226 S.O2    1  UNL1        0.0540
     35 O          62.1426   88.4323    9.8283 O.2     1  UNL1       -0.1545
     36 O          60.0928   88.5254   12.0168 O.2     1  UNL1       -0.1545
     37 C          61.0813   86.9796   10.9524 C.3     1  UNL1        0.1724
     38 C          62.5510   84.8372   10.9799 C.3     1  UNL1        0.0019
     39 C          62.2485   86.2118   11.4986 C.3     1  UNL1        0.0273
@<TRIPOS>BOND
     1    38    39    1
     2    39    37    1
     3    37    34    1
     4    34    35    2
     5    34    36    2
     6    34    32    1
     7    32    24    1
     8    24    25   ar
     9    25    26   ar
    10    26    27   ar
    11    27    28    1
    12    27    29   ar
    13    29    22    1
    14    22    23    2
    15    22     1    1
    16     1     2   ar
    17     2     3   ar
    18     3     4   ar
    19     4     5   ar
    20     5     6   ar
    21     6     7   ar
    22     7    11    1
    23    11    12   ar
    24    12    13   ar
    25    13    14   ar
    26    14    17    1
    27    17    18    2
    28    17    19    2
    29    17    20    1
    30    20    21    1
    31    14    15   ar
    32    15    16   ar
    33     7     8   ar
    34     8     9   ar
    35    29    30   ar
    36    30    31    1
    37    30    24   ar
    38     9     1   ar
    39     9     4    1
    40    16    11   ar
    41    32    33    1
    42     5    10    1
