@<TRIPOS>MOLECULE
*****
 33 37 0 0 0
SMALL
GASTEIGER

@<TRIPOS>ATOM
      1 C          64.2423   89.5862   14.1446 C.ar    1  UNL1        0.1829
      2 N          64.0200   88.2320   13.5390 N.ar    1  UNL1       -0.2103
      3 C          63.5469   87.3108   14.6242 C.ar    1  UNL1        0.1414
      4 N          63.4767   88.0957   15.9005 N.ar    1  UNL1       -0.2361
      5 N          63.9065   89.5019   15.6041 N.ar    1  UNL1       -0.1488
      6 C          63.0305   87.4286   17.1677 C.3     1  UNL1        0.1289
      7 C          62.6545   85.9766   17.1585 C.3     1  UNL1        0.0272
      8 C          62.7246   85.1917   15.8822 C.3     1  UNL1        0.0140
      9 C          63.1708   85.8588   14.6150 C.3     1  UNL1        0.0806
     10 C          66.2223   92.9249   13.3186 C.ar    1  UNL1        0.1548
     11 C          65.7476   91.7014   14.0450 C.ar    1  UNL1        0.0415
     12 C          64.7170   90.8097   13.4182 C.ar    1  UNL1        0.0406
     13 C          64.1612   91.1416   12.0652 C.ar    1  UNL1        0.0048
     14 C          64.6359   92.3652   11.3388 C.ar    1  UNL1        0.0207
     15 C          65.6665   93.2568   11.9656 C.ar    1  UNL1        0.0994
     16 N          66.1412   94.4804   11.2392 N.ar    1  UNL1       -0.2839
     17 C          66.1466   95.8798   11.7792 C.ar    1  UNL1        0.1826
     18 N          66.7026   96.7836   10.7191 N.ar    1  UNL1       -0.2280
     19 C          67.0409   95.9428    9.5239 C.ar    1  UNL1        0.0786
     20 C          67.6238   96.4385    8.2337 C.3     1  UNL1        0.0538
     21 C          66.6939   94.5194    9.8453 C.ar    1  UNL1        0.0963
     22 C          67.8079   93.4853   15.2990 C.3     1  UNL1        0.2525
     23 O          67.2530   93.8166   13.9454 O.3     1  UNL1       -0.4700
     24 C          63.2410   85.0739   13.3387 C.ar    1  UNL1       -0.0114
     25 C          62.6291   85.6248   12.0849 C.ar    1  UNL1       -0.0039
     26 C          62.6992   84.8399   10.8085 C.ar    1  UNL1       -0.0003
     27 C          63.3813   83.5041   10.7860 C.ar    1  UNL1       -0.0001
     28 C          63.9932   82.9533   12.0398 C.ar    1  UNL1        0.0035
     29 C          63.9230   83.7382   13.3162 C.ar    1  UNL1        0.0679
     30 C          64.5350   83.1873   14.5700 C.3     1  UNL1        0.4183
     31 F          65.1469   82.6363   15.8238 F       1  UNL1       -0.1659
     32 F          65.6643   84.1670   14.4494 F       1  UNL1       -0.1659
     33 F          63.4056   82.2075   14.6907 F       1  UNL1       -0.1659
@<TRIPOS>BOND
     1    22    23    1
     2    23    10    1
     3    10    11   ar
     4    11    12   ar
     5    12     1    1
     6     1     2   ar
     7     2     3   ar
     8     3     4   ar
     9     4     5   ar
    10     4     6    1
    11     6     7    1
    12     7     8    1
    13     8     9    1
    14     9    24    1
    15    24    25   ar
    16    25    26   ar
    17    26    27   ar
    18    27    28   ar
    19    28    29   ar
    20    29    30    1
    21    30    31    1
    22    30    32    1
    23    30    33    1
    24    12    13   ar
    25    13    14   ar
    26    14    15   ar
    27    15    16    1
    28    16    17   ar
    29    17    18   ar
    30    18    19   ar
    31    19    20    1
    32    19    21   ar
    33    15    10   ar
    34    21    16   ar
    35     5     1   ar
    36    29    24   ar
    37     9     3    1
@<TRIPOS>MOLECULE
*****
 33 37 0 0 0
SMALL
GASTEIGER

@<TRIPOS>ATOM
      1 C          64.2347   89.2099   14.0631 C.ar    1  UNL1        0.1829
      2 N          64.1840   87.8328   13.4707 N.ar    1  UNL1       -0.2103
      3 C          63.6594   86.8963   14.5185 C.ar    1  UNL1        0.1414
      4 N          63.3859   87.6947   15.7586 N.ar    1  UNL1       -0.2361
      5 N          63.7414   89.1245   15.4771 N.ar    1  UNL1       -0.1488
      6 C          62.8484   87.0166   16.9838 C.3     1  UNL1        0.1289
      7 C          62.5844   85.5401   16.9689 C.3     1  UNL1        0.0272
      8 C          62.8579   84.7418   15.7289 C.3     1  UNL1        0.0140
      9 C          63.3954   85.4199   14.5037 C.3     1  UNL1        0.0806
     10 C          66.3097   92.4860   13.2198 C.ar    1  UNL1        0.1548
     11 C          65.8470   91.2420   13.9187 C.ar    1  UNL1        0.0415
     12 C          64.6975   90.4539   13.3643 C.ar    1  UNL1        0.0406
     13 C          64.0107   90.9097   12.1111 C.ar    1  UNL1        0.0048
     14 C          64.4734   92.1537   11.4123 C.ar    1  UNL1        0.0207
     15 C          65.6229   92.9418   11.9667 C.ar    1  UNL1        0.0994
     16 N          66.0857   94.1858   11.2678 N.ar    1  UNL1       -0.2839
     17 C          66.1068   95.5681   11.8499 C.ar    1  UNL1        0.1826
     18 N          66.6427   96.5026   10.8061 N.ar    1  UNL1       -0.2280
     19 C          66.9528   95.6978    9.5788 C.ar    1  UNL1        0.0786
     20 C          67.5094   96.2311    8.2920 C.3     1  UNL1        0.0538
     21 C          66.6085   94.2660    9.8642 C.ar    1  UNL1        0.0963
     22 C          67.6150   93.4308   15.2579 C.3     1  UNL1        0.2525
     23 O          67.4593   93.2742   13.7743 O.3     1  UNL1       -0.4700
     24 C          63.6690   84.6215   13.2636 C.ar    1  UNL1       -0.0114
     25 C          64.6687   83.5037   13.2965 C.ar    1  UNL1       -0.0039
     26 C          64.9422   82.7054   12.0564 C.ar    1  UNL1       -0.0003
     27 C          64.2160   83.0247   10.7834 C.ar    1  UNL1       -0.0001
     28 C          63.2163   84.1425   10.7505 C.ar    1  UNL1        0.0035
     29 C          62.9428   84.9409   11.9906 C.ar    1  UNL1        0.0679
     30 C          61.9430   86.0587   11.9576 C.3     1  UNL1        0.4183
     31 F          60.9432   87.1764   11.9247 F       1  UNL1       -0.1659
     32 F          62.7589   86.7576   10.9109 F       1  UNL1       -0.1659
     33 F          61.1270   85.3597   13.0043 F       1  UNL1       -0.1659
@<TRIPOS>BOND
     1    22    23    1
     2    23    10    1
     3    10    11   ar
     4    11    12   ar
     5    12     1    1
     6     1     2   ar
     7     2     3   ar
     8     3     4   ar
     9     4     5   ar
    10     4     6    1
    11     6     7    1
    12     7     8    1
    13     8     9    1
    14     9    24    1
    15    24    25   ar
    16    25    26   ar
    17    26    27   ar
    18    27    28   ar
    19    28    29   ar
    20    29    30    1
    21    30    31    1
    22    30    32    1
    23    30    33    1
    24    12    13   ar
    25    13    14   ar
    26    14    15   ar
    27    15    16    1
    28    16    17   ar
    29    17    18   ar
    30    18    19   ar
    31    19    20    1
    32    19    21   ar
    33    15    10   ar
    34    21    16   ar
    35     5     1   ar
    36    29    24   ar
    37     9     3    1
@<TRIPOS>MOLECULE
*****
 33 37 0 0 0
SMALL
GASTEIGER

@<TRIPOS>ATOM
      1 C          63.7611   87.5233   14.4167 C.ar    1  UNL1        0.1829
      2 N          64.2627   88.7073   13.6444 N.ar    1  UNL1       -0.2103
      3 C          64.2773   89.8901   14.5667 C.ar    1  UNL1        0.1414
      4 N          63.7847   89.4371   15.9092 N.ar    1  UNL1       -0.2361
      5 N          63.4657   87.9744   15.8164 N.ar    1  UNL1       -0.1488
      6 C          63.6903   90.4151   17.0426 C.3     1  UNL1        0.1289
      7 C          64.0885   91.8460   16.8335 C.3     1  UNL1        0.0272
      8 C          64.5811   92.2990   15.4911 C.3     1  UNL1        0.0140
      9 C          64.6755   91.3211   14.3577 C.3     1  UNL1        0.0806
     10 C          62.9591   84.5327   11.9342 C.ar    1  UNL1        0.1548
     11 C          63.1345   85.9235   12.4679 C.ar    1  UNL1        0.0415
     12 C          63.5857   86.1325   13.8830 C.ar    1  UNL1        0.0406
     13 C          63.8616   84.9506   14.7645 C.ar    1  UNL1        0.0048
     14 C          63.6862   83.5597   14.2308 C.ar    1  UNL1        0.0207
     15 C          63.2350   83.3508   12.8156 C.ar    1  UNL1        0.0994
     16 N          63.0596   81.9600   12.2820 N.ar    1  UNL1       -0.2839
     17 C          62.7059   80.7447   13.0870 C.ar    1  UNL1        0.1826
     18 N          62.6348   79.5739   12.1521 N.ar    1  UNL1       -0.2280
     19 C          62.9445   80.0654   10.7692 C.ar    1  UNL1        0.0786
     20 C          62.9847   79.2292    9.5246 C.3     1  UNL1        0.0538
     21 C          63.2070   81.5401   10.8495 C.ar    1  UNL1        0.0963
     22 C          62.4625   85.4824    9.5674 C.3     1  UNL1        0.2525
     23 O          62.5078   84.3238   10.5190 O.3     1  UNL1       -0.4700
     24 C          65.1681   91.7741   13.0152 C.ar    1  UNL1       -0.0114
     25 C          64.2861   91.6424   11.8091 C.ar    1  UNL1       -0.0039
     26 C          64.7787   92.0954   10.4667 C.ar    1  UNL1       -0.0003
     27 C          66.1532   92.6801   10.3304 C.ar    1  UNL1       -0.0001
     28 C          67.0352   92.8118   11.5364 C.ar    1  UNL1        0.0035
     29 C          66.5426   92.3588   12.8789 C.ar    1  UNL1        0.0679
     30 C          67.4247   92.4905   14.0850 C.3     1  UNL1        0.4183
     31 F          68.3068   92.6221   15.2911 F       1  UNL1       -0.1659
     32 F          66.9815   93.9135   14.2538 F       1  UNL1       -0.1659
     33 F          67.8679   91.0675   13.9163 F       1  UNL1       -0.1659
@<TRIPOS>BOND
     1    22    23    1
     2    23    10    1
     3    10    11   ar
     4    11    12   ar
     5    12     1    1
     6     1     2   ar
     7     2     3   ar
     8     3     4   ar
     9     4     5   ar
    10     4     6    1
    11     6     7    1
    12     7     8    1
    13     8     9    1
    14     9    24    1
    15    24    25   ar
    16    25    26   ar
    17    26    27   ar
    18    27    28   ar
    19    28    29   ar
    20    29    30    1
    21    30    31    1
    22    30    32    1
    23    30    33    1
    24    12    13   ar
    25    13    14   ar
    26    14    15   ar
    27    15    16    1
    28    16    17   ar
    29    17    18   ar
    30    18    19   ar
    31    19    20    1
    32    19    21   ar
    33    15    10   ar
    34    21    16   ar
    35     5     1   ar
    36    29    24   ar
    37     9     3    1
@<TRIPOS>MOLECULE
*****
 33 37 0 0 0
SMALL
GASTEIGER

@<TRIPOS>ATOM
      1 C          62.9278   89.4838   11.4629 C.ar    1  UNL1        0.1829
      2 N          62.9418   88.0009   11.2377 N.ar    1  UNL1       -0.2103
      3 C          61.8240   87.6645   10.2957 C.ar    1  UNL1        0.1414
      4 N          61.1192   88.9396    9.9387 N.ar    1  UNL1       -0.2361
      5 N          61.8014   90.0640   10.6601 N.ar    1  UNL1       -0.1488
      6 C          59.9473   88.9121    9.0028 C.3     1  UNL1        0.1289
      7 C          59.4801   87.6095    8.4241 C.3     1  UNL1        0.0272
      8 C          60.1849   86.3345    8.7811 C.3     1  UNL1        0.0140
      9 C          61.3568   86.3620    9.7169 C.3     1  UNL1        0.0806
     10 C          65.3718   92.3349   12.7468 C.ar    1  UNL1        0.1548
     11 C          64.4255   91.5670   11.8723 C.ar    1  UNL1        0.0415
     12 C          63.8742   90.2518   12.3374 C.ar    1  UNL1        0.0406
     13 C          64.2692   89.7046   13.6770 C.ar    1  UNL1        0.0048
     14 C          65.2155   90.4725   14.5515 C.ar    1  UNL1        0.0207
     15 C          65.7668   91.7877   14.0864 C.ar    1  UNL1        0.0994
     16 N          66.7131   92.5556   14.9609 N.ar    1  UNL1       -0.2839
     17 C          66.4353   93.0315   16.3560 C.ar    1  UNL1        0.1826
     18 N          67.6539   93.7525   16.8512 N.ar    1  UNL1       -0.2280
     19 C          68.6849   93.7223   15.7621 C.ar    1  UNL1        0.0786
     20 C          70.0565   94.3258   15.8293 C.3     1  UNL1        0.0538
     21 C          68.1034   92.9826   14.5938 C.ar    1  UNL1        0.0963
     22 C          65.7388   94.0786   10.8561 C.3     1  UNL1        0.2525
     23 O          65.9231   93.6501   12.2817 O.3     1  UNL1       -0.4700
     24 C          62.0616   85.0869   10.0739 C.ar    1  UNL1       -0.0114
     25 C          62.0130   84.5720   11.4819 C.ar    1  UNL1       -0.0039
     26 C          62.7178   83.2969   11.8390 C.ar    1  UNL1       -0.0003
     27 C          63.4712   82.5368   10.7880 C.ar    1  UNL1       -0.0001
     28 C          63.5198   83.0517    9.3800 C.ar    1  UNL1        0.0035
     29 C          62.8150   84.3268    9.0230 C.ar    1  UNL1        0.0679
     30 C          62.8637   84.8417    7.6149 C.3     1  UNL1        0.4183
     31 F          62.9124   85.3566    6.2070 F       1  UNL1       -0.1659
     32 F          61.7929   83.8676    7.2217 F       1  UNL1       -0.1659
     33 F          63.9344   85.8157    8.0082 F       1  UNL1       -0.1659
@<TRIPOS>BOND
     1    22    23    1
     2    23    10    1
     3    10    11   ar
     4    11    12   ar
     5    12     1    1
     6     1     2   ar
     7     2     3   ar
     8     3     4   ar
     9     4     5   ar
    10     4     6    1
    11     6     7    1
    12     7     8    1
    13     8     9    1
    14     9    24    1
    15    24    25   ar
    16    25    26   ar
    17    26    27   ar
    18    27    28   ar
    19    28    29   ar
    20    29    30    1
    21    30    31    1
    22    30    32    1
    23    30    33    1
    24    12    13   ar
    25    13    14   ar
    26    14    15   ar
    27    15    16    1
    28    16    17   ar
    29    17    18   ar
    30    18    19   ar
    31    19    20    1
    32    19    21   ar
    33    15    10   ar
    34    21    16   ar
    35     5     1   ar
    36    29    24   ar
    37     9     3    1
@<TRIPOS>MOLECULE
*****
 33 37 0 0 0
SMALL
GASTEIGER

@<TRIPOS>ATOM
      1 C          62.3359   86.9991   11.6574 C.ar    1  UNL1        0.1829
      2 N          62.2680   85.5458   12.0225 N.ar    1  UNL1       -0.2103
      3 C          63.1364   85.3291   13.2262 C.ar    1  UNL1        0.1414
      4 N          63.7411   86.6485   13.6050 N.ar    1  UNL1       -0.2361
      5 N          63.2464   87.6806   12.6355 N.ar    1  UNL1       -0.1488
      6 C          64.6641   86.7397   14.7839 C.3     1  UNL1        0.1289
      7 C          64.9824   85.5115   15.5839 C.3     1  UNL1        0.0272
      8 C          64.3777   84.1920   15.2051 C.3     1  UNL1        0.0140
      9 C          63.4547   84.1009   14.0263 C.3     1  UNL1        0.0806
     10 C          60.3069   87.4743    8.2800 C.ar    1  UNL1        0.1548
     11 C          61.0235   86.8178    9.4225 C.ar    1  UNL1        0.0415
     12 C          61.6192   87.6556   10.5149 C.ar    1  UNL1        0.0406
     13 C          61.4982   89.1498   10.4647 C.ar    1  UNL1        0.0048
     14 C          60.7815   89.8063    9.3222 C.ar    1  UNL1        0.0207
     15 C          60.1859   88.9686    8.2298 C.ar    1  UNL1        0.0994
     16 N          59.4692   89.6251    7.0873 N.ar    1  UNL1       -0.2839
     17 C          58.0470   89.3777    6.6797 C.ar    1  UNL1        0.1826
     18 N          57.7477   90.2439    5.4922 N.ar    1  UNL1       -0.2280
     19 C          58.9849   91.0267    5.1660 C.ar    1  UNL1        0.0786
     20 C          59.1324   92.0180    4.0499 C.3     1  UNL1        0.0538
     21 C          60.0488   90.6442    6.1518 C.ar    1  UNL1        0.0963
     22 C          60.2542   85.2655    6.9131 C.3     1  UNL1        0.2525
     23 O          59.7112   86.6365    7.1876 O.3     1  UNL1       -0.4700
     24 C          62.8500   82.7815   13.6474 C.ar    1  UNL1       -0.0114
     25 C          61.8435   82.1311   14.5496 C.ar    1  UNL1       -0.0039
     26 C          61.2388   80.8117   14.1708 C.ar    1  UNL1       -0.0003
     27 C          61.6406   80.1427   12.8898 C.ar    1  UNL1       -0.0001
     28 C          62.6471   80.7930   11.9877 C.ar    1  UNL1        0.0035
     29 C          63.2518   82.1124   12.3665 C.ar    1  UNL1        0.0679
     30 C          64.2584   82.7628   11.4643 C.3     1  UNL1        0.4183
     31 F          65.2649   83.4131   10.5621 F       1  UNL1       -0.1659
     32 F          63.1492   83.2613   10.5861 F       1  UNL1       -0.1659
     33 F          65.3675   82.2643   12.3425 F       1  UNL1       -0.1659
@<TRIPOS>BOND
     1    22    23    1
     2    23    10    1
     3    10    11   ar
     4    11    12   ar
     5    12     1    1
     6     1     2   ar
     7     2     3   ar
     8     3     4   ar
     9     4     5   ar
    10     4     6    1
    11     6     7    1
    12     7     8    1
    13     8     9    1
    14     9    24    1
    15    24    25   ar
    16    25    26   ar
    17    26    27   ar
    18    27    28   ar
    19    28    29   ar
    20    29    30    1
    21    30    31    1
    22    30    32    1
    23    30    33    1
    24    12    13   ar
    25    13    14   ar
    26    14    15   ar
    27    15    16    1
    28    16    17   ar
    29    17    18   ar
    30    18    19   ar
    31    19    20    1
    32    19    21   ar
    33    15    10   ar
    34    21    16   ar
    35     5     1   ar
    36    29    24   ar
    37     9     3    1
@<TRIPOS>MOLECULE
*****
 33 37 0 0 0
SMALL
GASTEIGER

@<TRIPOS>ATOM
      1 C          64.2205   88.9208   14.2559 C.ar    1  UNL1        0.1829
      2 N          64.1775   87.5516   13.6448 N.ar    1  UNL1       -0.2103
      3 C          63.6454   86.6005   14.6754 C.ar    1  UNL1        0.1414
      4 N          63.3595   87.3819   15.9235 N.ar    1  UNL1       -0.2361
      5 N          63.7149   88.8159   15.6642 N.ar    1  UNL1       -0.1488
      6 C          62.8124   86.6866   17.1348 C.3     1  UNL1        0.1289
      7 C          62.5513   85.2100   17.0981 C.3     1  UNL1        0.0272
      8 C          62.8372   84.4286   15.8500 C.3     1  UNL1        0.0140
      9 C          63.3842   85.1239   14.6387 C.3     1  UNL1        0.0806
     10 C          64.5444   91.8467   11.5943 C.ar    1  UNL1        0.1548
     11 C          64.0778   90.5928   12.2724 C.ar    1  UNL1        0.0415
     12 C          64.6871   90.1748   13.5778 C.ar    1  UNL1        0.0406
     13 C          65.7631   91.0108   14.2050 C.ar    1  UNL1        0.0048
     14 C          66.2297   92.2647   13.5268 C.ar    1  UNL1        0.0207
     15 C          65.6204   92.6827   12.2215 C.ar    1  UNL1        0.0994
     16 N          66.0870   93.9366   11.5434 N.ar    1  UNL1       -0.2839
     17 C          66.1382   95.3043   12.1573 C.ar    1  UNL1        0.1826
     18 N          66.6672   96.2560   11.1256 N.ar    1  UNL1       -0.2280
     19 C          66.9429   95.4766    9.8740 C.ar    1  UNL1        0.0786
     20 C          67.4825   96.0328    8.5897 C.3     1  UNL1        0.0538
     21 C          66.5844   94.0431   10.1322 C.ar    1  UNL1        0.0963
     22 C          62.8749   91.4170    9.6505 C.3     1  UNL1        0.2525
     23 O          63.9350   92.2647   10.2889 O.3     1  UNL1       -0.4700
     24 C          63.6701   84.3425   13.3906 C.ar    1  UNL1       -0.0114
     25 C          64.6490   83.2065   13.4246 C.ar    1  UNL1       -0.0039
     26 C          64.9349   82.4251   12.1765 C.ar    1  UNL1       -0.0003
     27 C          64.2420   82.7798   10.8944 C.ar    1  UNL1       -0.0001
     28 C          63.2631   83.9158   10.8603 C.ar    1  UNL1        0.0035
     29 C          62.9772   84.6972   12.1084 C.ar    1  UNL1        0.0679
     30 C          61.9982   85.8332   12.0743 C.3     1  UNL1        0.4183
     31 F          61.0194   86.9693   12.0401 F       1  UNL1       -0.1659
     32 F          61.1912   85.1702   13.1509 F       1  UNL1       -0.1659
     33 F          62.8053   86.4963   10.9977 F       1  UNL1       -0.1659
@<TRIPOS>BOND
     1    22    23    1
     2    23    10    1
     3    10    11   ar
     4    11    12   ar
     5    12     1    1
     6     1     2   ar
     7     2     3   ar
     8     3     4   ar
     9     4     5   ar
    10     4     6    1
    11     6     7    1
    12     7     8    1
    13     8     9    1
    14     9    24    1
    15    24    25   ar
    16    25    26   ar
    17    26    27   ar
    18    27    28   ar
    19    28    29   ar
    20    29    30    1
    21    30    31    1
    22    30    32    1
    23    30    33    1
    24    12    13   ar
    25    13    14   ar
    26    14    15   ar
    27    15    16    1
    28    16    17   ar
    29    17    18   ar
    30    18    19   ar
    31    19    20    1
    32    19    21   ar
    33    15    10   ar
    34    21    16   ar
    35     5     1   ar
    36    29    24   ar
    37     9     3    1
@<TRIPOS>MOLECULE
*****
 33 37 0 0 0
SMALL
GASTEIGER

@<TRIPOS>ATOM
      1 C          62.7835   89.7290   10.8226 C.ar    1  UNL1        0.1829
      2 N          62.8197   88.2312   10.7504 N.ar    1  UNL1       -0.2103
      3 C          61.6919   87.7822    9.8692 C.ar    1  UNL1        0.1414
      4 N          60.9586   89.0025    9.3968 N.ar    1  UNL1       -0.2361
      5 N          61.6333   90.2057    9.9860 N.ar    1  UNL1       -0.1488
      6 C          59.7714   88.8604    8.4912 C.3     1  UNL1        0.1289
      7 C          59.3174   87.4980    8.0580 C.3     1  UNL1        0.0272
      8 C          60.0507   86.2777    8.5304 C.3     1  UNL1        0.0140
      9 C          61.2379   86.4198    9.4360 C.3     1  UNL1        0.0806
     10 C          64.8691   91.2444   13.8398 C.ar    1  UNL1        0.1548
     11 C          63.9216   90.3758   13.0668 C.ar    1  UNL1        0.0415
     12 C          63.7311   90.5977   11.5956 C.ar    1  UNL1        0.0406
     13 C          64.4882   91.6882   10.8974 C.ar    1  UNL1        0.0048
     14 C          65.4357   92.5569   11.6704 C.ar    1  UNL1        0.0207
     15 C          65.6262   92.3350   13.1416 C.ar    1  UNL1        0.0994
     16 N          66.5738   93.2036   13.9146 N.ar    1  UNL1       -0.2839
     17 C          66.6377   94.7014   13.8641 C.ar    1  UNL1        0.1826
     18 N          67.7273   95.1505   14.7921 N.ar    1  UNL1       -0.2280
     19 C          68.3368   93.9302   15.4162 C.ar    1  UNL1        0.0786
     20 C          69.4617   93.9157   16.4084 C.3     1  UNL1        0.0538
     21 C          67.6239   92.7270   14.8738 C.ar    1  UNL1        0.0963
     22 C          63.8954   91.1585   16.2469 C.3     1  UNL1        0.2525
     23 O          65.0596   91.0225   15.3110 O.3     1  UNL1       -0.4700
     24 C          61.9712   85.1995    9.9084 C.ar    1  UNL1       -0.0114
     25 C          61.8959   84.7902   11.3495 C.ar    1  UNL1       -0.0039
     26 C          62.6292   83.5699   11.8219 C.ar    1  UNL1       -0.0003
     27 C          63.4378   82.7588   10.8532 C.ar    1  UNL1       -0.0001
     28 C          63.5130   83.1681    9.4121 C.ar    1  UNL1        0.0035
     29 C          62.7798   84.3884    8.9397 C.ar    1  UNL1        0.0679
     30 C          62.8551   84.7977    7.4985 C.3     1  UNL1        0.4183
     31 F          62.9304   85.2069    6.0574 F       1  UNL1       -0.1659
     32 F          61.7947   83.7930    7.1578 F       1  UNL1       -0.1659
     33 F          63.9154   85.8023    7.8393 F       1  UNL1       -0.1659
@<TRIPOS>BOND
     1    22    23    1
     2    23    10    1
     3    10    11   ar
     4    11    12   ar
     5    12     1    1
     6     1     2   ar
     7     2     3   ar
     8     3     4   ar
     9     4     5   ar
    10     4     6    1
    11     6     7    1
    12     7     8    1
    13     8     9    1
    14     9    24    1
    15    24    25   ar
    16    25    26   ar
    17    26    27   ar
    18    27    28   ar
    19    28    29   ar
    20    29    30    1
    21    30    31    1
    22    30    32    1
    23    30    33    1
    24    12    13   ar
    25    13    14   ar
    26    14    15   ar
    27    15    16    1
    28    16    17   ar
    29    17    18   ar
    30    18    19   ar
    31    19    20    1
    32    19    21   ar
    33    15    10   ar
    34    21    16   ar
    35     5     1   ar
    36    29    24   ar
    37     9     3    1
