@<TRIPOS>MOLECULE
*****
 42 45 0 0 0
SMALL
GASTEIGER

@<TRIPOS>ATOM
      1 C          61.9537   87.6594   10.8323 C.ar    1  UNL1        0.0759
      2 C          62.2436   89.0356   11.3537 C.ar    1  UNL1        0.0848
      3 N          63.1004   89.2109   12.5724 N.ar    1  UNL1       -0.2754
      4 C          63.6673   88.0099   13.2697 C.ar    1  UNL1        0.3341
      5 O          64.5240   88.1852   14.4884 O.2     1  UNL1       -0.2462
      6 N          63.3774   86.6336   12.7483 N.ar    1  UNL1       -0.2470
      7 C          62.5206   86.4584   11.5296 C.ar    1  UNL1        0.2657
      8 O          62.2307   85.0821   11.0082 O.2     1  UNL1       -0.2668
      9 C          59.5346   88.4902    7.7979 C.ar    1  UNL1        0.1660
     10 C          59.3834   87.1336    7.1762 C.ar    1  UNL1        0.0392
     11 C          60.0891   85.9522    7.7732 C.ar    1  UNL1        0.0033
     12 C          60.9458   86.1274    8.9918 C.ar    1  UNL1        0.0026
     13 C          61.0970   87.4841    9.6135 C.ar    1  UNL1        0.0366
     14 C          60.3913   88.6655    9.0166 C.ar    1  UNL1        0.1739
     15 F          60.5425   90.0222    9.6384 F       1  UNL1       -0.2010
     16 C          59.1765   90.1319    5.8163 C.3     1  UNL1        0.2526
     17 O          58.8289   89.6717    7.2010 O.3     1  UNL1       -0.4692
     18 C          63.3903   90.5872   13.0938 C.3     1  UNL1        0.1417
     19 C          64.5630   91.3582   12.5644 C.ar    1  UNL1        0.0555
     20 C          64.5189   91.9337   11.1799 C.ar    1  UNL1        0.1401
     21 F          63.3021   91.7382   10.3248 F       1  UNL1       -0.2044
     22 C          65.6916   92.7047   10.6505 C.ar    1  UNL1        0.0295
     23 C          66.9084   92.9002   11.5055 C.ar    1  UNL1        0.0046
     24 C          66.9525   92.3247   12.8900 C.ar    1  UNL1        0.0295
     25 C          65.7798   91.5537   13.4194 C.ar    1  UNL1        0.1401
     26 F          65.8239   90.9781   14.8039 F       1  UNL1       -0.2044
     27 C          63.9443   85.4326   13.4456 C.3     1  UNL1        0.1337
     28 C          63.0446   84.5314   14.2382 C.3     1  UNL1        0.1000
     29 C          62.8287   83.1132   13.8001 C.ar    1  UNL1       -0.0061
     30 C          63.6293   82.5491   12.6640 C.ar    1  UNL1       -0.0029
     31 C          63.4134   81.1309   12.2258 C.ar    1  UNL1       -0.0003
     32 C          62.3970   80.2767   12.9238 C.ar    1  UNL1       -0.0000
     33 C          61.5963   80.8408   14.0599 C.ar    1  UNL1       -0.0003
     34 C          61.8122   82.2590   14.4981 C.ar    1  UNL1       -0.0029
     35 N          62.3607   85.0485   15.4691 N.3     1  UNL1       -0.2935
     36 H          61.9580   84.2404   15.9437 H       1  UNL1        0.1236
     37 C          63.1430   85.8095   16.4981 C.3     1  UNL1        0.0692
     38 C          62.4743   86.8808   17.3074 C.3     1  UNL1        0.0230
     39 C          63.1500   88.2058   17.5018 C.3     1  UNL1        0.0431
     40 C          62.6813   89.4064   16.7344 C.2     1  UNL1        0.0504
     41 O          61.4492   89.3185   15.8833 O.co2   1  UNL1       -0.5492
     42 O          63.4448   90.6950   16.8180 O.co2   1  UNL1       -0.5492
@<TRIPOS>UNITY_ATOM_ATTR
41 1
charge -1
@<TRIPOS>BOND
     1    16    17    1
     2    17     9    1
     3     9    10   ar
     4    10    11   ar
     5    11    12   ar
     6    12    13   ar
     7    13     1    1
     8     1     2   ar
     9     2     3   ar
    10     3    18    1
    11    18    19    1
    12    19    20   ar
    13    20    21    1
    14    20    22   ar
    15    22    23   ar
    16    23    24   ar
    17    24    25   ar
    18    25    26    1
    19     3     4   ar
    20     4     5    2
    21     4     6   ar
    22     6    27    1
    23    28    27    1
    24    28    35    1
    25    35    37    1
    26    37    38    1
    27    38    39    1
    28    39    40    1
    29    40    41   ar
    30    40    42   ar
    31    28    29    1
    32    29    30   ar
    33    30    31   ar
    34    31    32   ar
    35    32    33   ar
    36    33    34   ar
    37     6     7   ar
    38     7     8    2
    39    13    14   ar
    40    14    15    1
    41    14     9   ar
    42     7     1   ar
    43    25    19   ar
    44    34    29   ar
    45    35    36    1
@<TRIPOS>MOLECULE
*****
 42 45 0 0 0
SMALL
GASTEIGER

@<TRIPOS>ATOM
      1 C          62.1004   87.8082   11.0081 C.ar    1  UNL1        0.0759
      2 C          62.6289   86.6186   11.7534 C.ar    1  UNL1        0.0848
      3 N          63.4714   86.8149   12.9789 N.ar    1  UNL1       -0.2754
      4 C          63.7854   88.2009   13.4590 C.ar    1  UNL1        0.3341
      5 O          64.6278   88.3973   14.6844 O.2     1  UNL1       -0.2462
      6 N          63.2569   89.3906   12.7137 N.ar    1  UNL1       -0.2470
      7 C          62.4144   89.1942   11.4883 C.ar    1  UNL1        0.2657
      8 O          61.8859   90.3839   10.7429 O.2     1  UNL1       -0.2668
      9 C          60.5507   86.1602    7.7474 C.ar    1  UNL1        0.1660
     10 C          59.5731   87.2192    7.3318 C.ar    1  UNL1        0.0392
     11 C          59.4379   88.4746    8.1417 C.ar    1  UNL1        0.0033
     12 C          60.2803   88.6709    9.3671 C.ar    1  UNL1        0.0026
     13 C          61.2579   87.6119    9.7827 C.ar    1  UNL1        0.0366
     14 C          61.3931   86.3566    8.9728 C.ar    1  UNL1        0.1739
     15 F          62.3708   85.2976    9.3885 F       1  UNL1       -0.2010
     16 C          61.9831   84.5895    6.2539 C.3     1  UNL1        0.2526
     17 O          60.6859   84.9049    6.9376 O.3     1  UNL1       -0.4692
     18 C          63.9999   85.6253   13.7242 C.3     1  UNL1        0.1417
     19 C          63.3710   84.2777   13.5285 C.ar    1  UNL1        0.0555
     20 C          62.4218   83.7366   14.5562 C.ar    1  UNL1        0.1401
     21 F          62.1014   84.5431   15.7797 F       1  UNL1       -0.2044
     22 C          61.7929   82.3889   14.3604 C.ar    1  UNL1        0.0295
     23 C          62.1133   81.5823   13.1370 C.ar    1  UNL1        0.0046
     24 C          63.0625   82.1234   12.1093 C.ar    1  UNL1        0.0295
     25 C          63.6913   83.4711   12.3051 C.ar    1  UNL1        0.1401
     26 F          64.6406   84.0122   11.2773 F       1  UNL1       -0.2044
     27 C          63.5709   90.7765   13.1938 C.3     1  UNL1        0.1337
     28 C          64.8807   91.4149   12.8377 C.3     1  UNL1        0.1000
     29 C          65.8479   91.7960   13.9190 C.ar    1  UNL1       -0.0061
     30 C          65.3496   92.0798   15.3050 C.ar    1  UNL1       -0.0029
     31 C          66.3168   92.4609   16.3863 C.ar    1  UNL1       -0.0003
     32 C          67.7823   92.5582   16.0817 C.ar    1  UNL1       -0.0000
     33 C          68.2806   92.2743   14.6956 C.ar    1  UNL1       -0.0003
     34 C          67.3134   91.8932   13.6142 C.ar    1  UNL1       -0.0029
     35 N          65.2233   91.6721   11.4001 N.3     1  UNL1       -0.2935
     36 H          64.6532   91.0357   10.8431 H       1  UNL1        0.1236
     37 C          65.0372   93.0421   10.8183 C.3     1  UNL1        0.0692
     38 C          66.2153   93.9574   10.6631 C.3     1  UNL1        0.0230
     39 C          67.1315   93.8074    9.4849 C.3     1  UNL1        0.0431
     40 C          68.1315   92.6900    9.4499 C.2     1  UNL1        0.0504
     41 O          68.7361   92.2651    8.1445 O.co2   1  UNL1       -0.5492
     42 O          68.5270   91.9973   10.7203 O.co2   1  UNL1       -0.5492
@<TRIPOS>UNITY_ATOM_ATTR
41 1
charge -1
@<TRIPOS>BOND
     1    16    17    1
     2    17     9    1
     3     9    10   ar
     4    10    11   ar
     5    11    12   ar
     6    12    13   ar
     7    13     1    1
     8     1     2   ar
     9     2     3   ar
    10     3    18    1
    11    18    19    1
    12    19    20   ar
    13    20    21    1
    14    20    22   ar
    15    22    23   ar
    16    23    24   ar
    17    24    25   ar
    18    25    26    1
    19     3     4   ar
    20     4     5    2
    21     4     6   ar
    22     6    27    1
    23    28    27    1
    24    28    35    1
    25    35    37    1
    26    37    38    1
    27    38    39    1
    28    39    40    1
    29    40    41   ar
    30    40    42   ar
    31    28    29    1
    32    29    30   ar
    33    30    31   ar
    34    31    32   ar
    35    32    33   ar
    36    33    34   ar
    37     6     7   ar
    38     7     8    2
    39    13    14   ar
    40    14    15    1
    41    14     9   ar
    42     7     1   ar
    43    25    19   ar
    44    34    29   ar
    45    35    36    1
@<TRIPOS>MOLECULE
*****
 42 45 0 0 0
SMALL
GASTEIGER

@<TRIPOS>ATOM
      1 C          62.2218   87.1516   10.9140 C.ar    1  UNL1        0.0759
      2 C          62.3636   88.6043   11.2599 C.ar    1  UNL1        0.0848
      3 N          63.0863   89.0106   12.5099 N.ar    1  UNL1       -0.2754
      4 C          63.6673   87.9642   13.4141 C.ar    1  UNL1        0.3341
      5 O          64.3901   88.3705   14.6641 O.2     1  UNL1       -0.2462
      6 N          63.5255   86.5115   13.0682 N.ar    1  UNL1       -0.2470
      7 C          62.8027   86.1052   11.8182 C.ar    1  UNL1        0.2657
      8 O          62.6609   84.6525   11.4724 O.2     1  UNL1       -0.2668
      9 C          61.4723   85.4985    7.3848 C.ar    1  UNL1        0.1660
     10 C          60.0536   85.9326    7.1640 C.ar    1  UNL1        0.0392
     11 C          59.3576   86.7731    8.1932 C.ar    1  UNL1        0.0033
     12 C          60.0803   87.1794    9.4432 C.ar    1  UNL1        0.0026
     13 C          61.4990   86.7453    9.6640 C.ar    1  UNL1        0.0366
     14 C          62.1950   85.9048    8.6348 C.ar    1  UNL1        0.1739
     15 F          63.6137   85.4707    8.8557 F       1  UNL1       -0.2010
     16 C          61.3950   84.0927    5.2013 C.3     1  UNL1        0.2526
     17 O          62.1682   84.6580    6.3556 O.3     1  UNL1       -0.4692
     18 C          63.2281   90.4632   12.8557 C.3     1  UNL1        0.1417
     19 C          64.4003   91.2456   12.3420 C.ar    1  UNL1        0.0555
     20 C          64.3933   91.7717   10.9374 C.ar    1  UNL1        0.1401
     21 F          63.2141   91.5155   10.0464 F       1  UNL1       -0.2044
     22 C          65.5655   92.5540   10.4236 C.ar    1  UNL1        0.0295
     23 C          66.7447   92.8102   11.3145 C.ar    1  UNL1        0.0046
     24 C          66.7518   92.2841   12.7192 C.ar    1  UNL1        0.0295
     25 C          65.5796   91.5017   13.2329 C.ar    1  UNL1        0.1401
     26 F          65.5866   90.9756   14.6376 F       1  UNL1       -0.2044
     27 C          64.1064   85.4651   13.9724 C.3     1  UNL1        0.1337
     28 C          63.1995   84.5455   14.7352 C.3     1  UNL1        0.1000
     29 C          63.0011   83.1329   14.2713 C.ar    1  UNL1       -0.0061
     30 C          61.7182   82.4172   14.5743 C.ar    1  UNL1       -0.0029
     31 C          61.5198   81.0046   14.1104 C.ar    1  UNL1       -0.0003
     32 C          62.6043   80.3078   13.3435 C.ar    1  UNL1       -0.0000
     33 C          63.8873   81.0235   13.0404 C.ar    1  UNL1       -0.0003
     34 C          64.0857   82.4361   13.5043 C.ar    1  UNL1       -0.0029
     35 N          62.4909   85.0386   15.9620 N.3     1  UNL1       -0.2935
     36 H          62.1704   84.2134   16.4685 H       1  UNL1        0.1236
     37 C          63.2172   85.8997   16.9524 C.3     1  UNL1        0.0692
     38 C          62.5282   87.0831   17.5646 C.3     1  UNL1        0.0230
     39 C          63.1988   88.4249   17.5633 C.3     1  UNL1        0.0431
     40 C          62.6487   89.5374   16.7209 C.2     1  UNL1        0.0504
     41 O          61.4188   89.3130   15.8921 O.co2   1  UNL1       -0.5492
     42 O          63.3286   90.8745   16.7073 O.co2   1  UNL1       -0.5492
@<TRIPOS>UNITY_ATOM_ATTR
41 1
charge -1
@<TRIPOS>BOND
     1    16    17    1
     2    17     9    1
     3     9    10   ar
     4    10    11   ar
     5    11    12   ar
     6    12    13   ar
     7    13     1    1
     8     1     2   ar
     9     2     3   ar
    10     3    18    1
    11    18    19    1
    12    19    20   ar
    13    20    21    1
    14    20    22   ar
    15    22    23   ar
    16    23    24   ar
    17    24    25   ar
    18    25    26    1
    19     3     4   ar
    20     4     5    2
    21     4     6   ar
    22     6    27    1
    23    28    27    1
    24    28    35    1
    25    35    37    1
    26    37    38    1
    27    38    39    1
    28    39    40    1
    29    40    41   ar
    30    40    42   ar
    31    28    29    1
    32    29    30   ar
    33    30    31   ar
    34    31    32   ar
    35    32    33   ar
    36    33    34   ar
    37     6     7   ar
    38     7     8    2
    39    13    14   ar
    40    14    15    1
    41    14     9   ar
    42     7     1   ar
    43    25    19   ar
    44    34    29   ar
    45    35    36    1
@<TRIPOS>MOLECULE
*****
 42 45 0 0 0
SMALL
GASTEIGER

@<TRIPOS>ATOM
      1 C          62.2082   87.1170   11.0892 C.ar    1  UNL1        0.0759
      2 C          62.8215   85.9976   11.8771 C.ar    1  UNL1        0.0848
      3 N          63.5522   86.2914   13.1537 N.ar    1  UNL1       -0.2754
      4 C          63.6697   87.7047   13.6424 C.ar    1  UNL1        0.3341
      5 O          64.4004   87.9986   14.9190 O.2     1  UNL1       -0.2462
      6 N          63.0564   88.8242   12.8544 N.ar    1  UNL1       -0.2470
      7 C          62.3257   88.5303   11.5779 C.ar    1  UNL1        0.2657
      8 O          61.7124   89.6497   10.7899 O.2     1  UNL1       -0.2668
      9 C          61.3952   85.6873    7.4774 C.ar    1  UNL1        0.1660
     10 C          60.0161   86.2354    7.2594 C.ar    1  UNL1        0.0392
     11 C          59.3676   87.0774    8.3180 C.ar    1  UNL1        0.0033
     12 C          60.0983   87.3713    9.5946 C.ar    1  UNL1        0.0026
     13 C          61.4774   86.8231    9.8126 C.ar    1  UNL1        0.0366
     14 C          62.1258   85.9811    8.7540 C.ar    1  UNL1        0.1739
     15 F          63.5050   85.4330    8.9721 F       1  UNL1       -0.2010
     16 C          61.2109   83.9195    5.5824 C.3     1  UNL1        0.2526
     17 O          62.0436   84.8453    6.4189 O.3     1  UNL1       -0.4692
     18 C          64.1655   85.1720   13.9416 C.3     1  UNL1        0.1417
     19 C          63.6340   83.7765   13.8003 C.ar    1  UNL1        0.0555
     20 C          64.1090   82.9032   12.6771 C.ar    1  UNL1        0.1401
     21 F          65.1155   83.4255   11.6950 F       1  UNL1       -0.2044
     22 C          63.5776   81.5076   12.5358 C.ar    1  UNL1        0.0295
     23 C          62.5712   80.9853   13.5177 C.ar    1  UNL1        0.0046
     24 C          62.0962   81.8586   14.6410 C.ar    1  UNL1        0.0295
     25 C          62.6276   83.2542   14.7823 C.ar    1  UNL1        0.1401
     26 F          62.1526   84.1275   15.9056 F       1  UNL1       -0.2044
     27 C          63.1738   90.2375   13.3431 C.3     1  UNL1        0.1337
     28 C          64.5272   90.8583   13.5244 C.3     1  UNL1        0.1000
     29 C          65.1503   91.6390   12.4053 C.ar    1  UNL1       -0.0061
     30 C          66.5887   92.0555   12.4915 C.ar    1  UNL1       -0.0029
     31 C          67.2117   92.8361   11.3724 C.ar    1  UNL1       -0.0003
     32 C          66.3964   93.2003   10.1672 C.ar    1  UNL1       -0.0000
     33 C          64.9579   92.7838   10.0810 C.ar    1  UNL1       -0.0003
     34 C          64.3348   92.0031   11.2001 C.ar    1  UNL1       -0.0029
     35 N          65.2576   90.6985   14.8249 N.3     1  UNL1       -0.2935
     36 H          66.2449   90.5834   14.5959 H       1  UNL1        0.1236
     37 C          65.1774   91.7741   15.8672 C.3     1  UNL1        0.0692
     38 C          66.3314   92.7110   16.0685 C.3     1  UNL1        0.0230
     39 C          67.7366   92.1867   16.0413 C.3     1  UNL1        0.0431
     40 C          68.8367   93.0200   15.4538 C.2     1  UNL1        0.0504
     41 O          69.2427   94.3023   16.1178 O.co2   1  UNL1       -0.5492
     42 O          69.5309   92.5710   14.2021 O.co2   1  UNL1       -0.5492
@<TRIPOS>UNITY_ATOM_ATTR
41 1
charge -1
@<TRIPOS>BOND
     1    16    17    1
     2    17     9    1
     3     9    10   ar
     4    10    11   ar
     5    11    12   ar
     6    12    13   ar
     7    13     1    1
     8     1     2   ar
     9     2     3   ar
    10     3    18    1
    11    18    19    1
    12    19    20   ar
    13    20    21    1
    14    20    22   ar
    15    22    23   ar
    16    23    24   ar
    17    24    25   ar
    18    25    26    1
    19     3     4   ar
    20     4     5    2
    21     4     6   ar
    22     6    27    1
    23    28    27    1
    24    28    35    1
    25    35    37    1
    26    37    38    1
    27    38    39    1
    28    39    40    1
    29    40    41   ar
    30    40    42   ar
    31    28    29    1
    32    29    30   ar
    33    30    31   ar
    34    31    32   ar
    35    32    33   ar
    36    33    34   ar
    37     6     7   ar
    38     7     8    2
    39    13    14   ar
    40    14    15    1
    41    14     9   ar
    42     7     1   ar
    43    25    19   ar
    44    34    29   ar
    45    35    36    1
@<TRIPOS>MOLECULE
*****
 42 45 0 0 0
SMALL
GASTEIGER

@<TRIPOS>ATOM
      1 C          63.2215   87.2499   12.6995 C.ar    1  UNL1        0.0759
      2 C          62.4783   87.3522   11.4007 C.ar    1  UNL1        0.0848
      3 N          62.2423   88.6952   10.7754 N.ar    1  UNL1       -0.2754
      4 C          62.7496   89.9357   11.4491 C.ar    1  UNL1        0.3341
      5 O          62.5136   91.2786   10.8239 O.2     1  UNL1       -0.2462
      6 N          63.4928   89.8332   12.7480 N.ar    1  UNL1       -0.2470
      7 C          63.7287   88.4904   13.3732 C.ar    1  UNL1        0.2657
      8 O          64.4720   88.3879   14.6722 O.2     1  UNL1       -0.2668
      9 C          63.0271   83.3454   13.3834 C.ar    1  UNL1        0.1660
     10 C          63.9294   83.2211   14.5752 C.ar    1  UNL1        0.0392
     11 C          64.5957   84.4397   15.1418 C.ar    1  UNL1        0.0033
     12 C          64.3598   85.7826   14.5166 C.ar    1  UNL1        0.0026
     13 C          63.4575   85.9069   13.3248 C.ar    1  UNL1        0.0366
     14 C          62.7912   84.6883   12.7582 C.ar    1  UNL1        0.1739
     15 F          61.8888   84.8127   11.5664 F       1  UNL1       -0.2010
     16 C          61.6176   81.1893   13.7216 C.3     1  UNL1        0.2526
     17 O          62.3608   82.1268   12.8168 O.3     1  UNL1       -0.4692
     18 C          61.4991   88.7976    9.4765 C.3     1  UNL1        0.1417
     19 C          61.1523   87.5552    8.7109 C.ar    1  UNL1        0.0555
     20 C          62.2144   86.5408    8.4063 C.ar    1  UNL1        0.1401
     21 F          63.6235   86.7688    8.8674 F       1  UNL1       -0.2044
     22 C          61.8675   85.2984    7.6407 C.ar    1  UNL1        0.0295
     23 C          60.4585   85.0704    7.1797 C.ar    1  UNL1        0.0046
     24 C          59.3964   86.0848    7.4843 C.ar    1  UNL1        0.0295
     25 C          59.7432   87.3272    8.2499 C.ar    1  UNL1        0.1401
     26 F          58.6810   88.3416    8.5545 F       1  UNL1       -0.2044
     27 C          64.0000   91.0738   13.4217 C.3     1  UNL1        0.1337
     28 C          65.2915   91.6939   12.9774 C.3     1  UNL1        0.1000
     29 C          66.3518   92.0228   13.9861 C.ar    1  UNL1       -0.0061
     30 C          65.9632   92.4562   15.3685 C.ar    1  UNL1       -0.0029
     31 C          67.0235   92.7851   16.3773 C.ar    1  UNL1       -0.0003
     32 C          68.4724   92.6805   16.0037 C.ar    1  UNL1       -0.0000
     33 C          68.8611   92.2470   14.6212 C.ar    1  UNL1       -0.0003
     34 C          67.8008   91.9181   13.6124 C.ar    1  UNL1       -0.0029
     35 N          65.5227   91.9852   11.5241 N.3     1  UNL1       -0.2935
     36 H          64.8679   91.4051   10.9997 H       1  UNL1        0.1236
     37 C          65.3716   93.3849   11.0065 C.3     1  UNL1        0.0692
     38 C          66.5880   94.2197   10.7356 C.3     1  UNL1        0.0230
     39 C          67.4034   93.9782    9.4999 C.3     1  UNL1        0.0431
     40 C          68.2680   92.7568    9.3987 C.2     1  UNL1        0.0504
     41 O          68.7330   92.2761    8.0560 O.co2   1  UNL1       -0.5492
     42 O          68.6678   92.0159   10.6402 O.co2   1  UNL1       -0.5492
@<TRIPOS>UNITY_ATOM_ATTR
41 1
charge -1
@<TRIPOS>BOND
     1    16    17    1
     2    17     9    1
     3     9    10   ar
     4    10    11   ar
     5    11    12   ar
     6    12    13   ar
     7    13     1    1
     8     1     2   ar
     9     2     3   ar
    10     3    18    1
    11    18    19    1
    12    19    20   ar
    13    20    21    1
    14    20    22   ar
    15    22    23   ar
    16    23    24   ar
    17    24    25   ar
    18    25    26    1
    19     3     4   ar
    20     4     5    2
    21     4     6   ar
    22     6    27    1
    23    28    27    1
    24    28    35    1
    25    35    37    1
    26    37    38    1
    27    38    39    1
    28    39    40    1
    29    40    41   ar
    30    40    42   ar
    31    28    29    1
    32    29    30   ar
    33    30    31   ar
    34    31    32   ar
    35    32    33   ar
    36    33    34   ar
    37     6     7   ar
    38     7     8    2
    39    13    14   ar
    40    14    15    1
    41    14     9   ar
    42     7     1   ar
    43    25    19   ar
    44    34    29   ar
    45    35    36    1
@<TRIPOS>MOLECULE
*****
 42 45 0 0 0
SMALL
GASTEIGER

@<TRIPOS>ATOM
      1 C          63.2130   87.2260   12.6987 C.ar    1  UNL1        0.0759
      2 C          62.4706   87.3371   11.4001 C.ar    1  UNL1        0.0848
      3 N          62.2362   88.6841   10.7831 N.ar    1  UNL1       -0.2754
      4 C          62.7441   89.9200   11.4647 C.ar    1  UNL1        0.3341
      5 O          62.5097   91.2669   10.8477 O.2     1  UNL1       -0.2462
      6 N          63.4866   89.8088   12.7634 N.ar    1  UNL1       -0.2470
      7 C          63.7210   88.4618   13.3804 C.ar    1  UNL1        0.2657
      8 O          64.4635   88.3507   14.6790 O.2     1  UNL1       -0.2668
      9 C          63.0240   83.3159   13.3512 C.ar    1  UNL1        0.1660
     10 C          63.9163   83.1851   14.5498 C.ar    1  UNL1        0.0392
     11 C          64.5742   84.4012   15.1313 C.ar    1  UNL1        0.0033
     12 C          64.3398   85.7481   14.5143 C.ar    1  UNL1        0.0026
     13 C          63.4475   85.8790   13.3158 C.ar    1  UNL1        0.0366
     14 C          62.7896   84.6629   12.7342 C.ar    1  UNL1        0.1739
     15 F          61.8972   84.7938   11.5356 F       1  UNL1       -0.2010
     16 C          61.6821   81.1142   13.6700 C.3     1  UNL1        0.2526
     17 O          62.3661   82.0998   12.7696 O.3     1  UNL1       -0.4692
     18 C          61.4937   88.7952    9.4845 C.3     1  UNL1        0.1417
     19 C          61.1446   87.5578    8.7119 C.ar    1  UNL1        0.0555
     20 C          59.7351   87.3349    8.2498 C.ar    1  UNL1        0.1401
     21 F          58.6747   88.3494    8.5602 F       1  UNL1       -0.2044
     22 C          59.3859   86.0975    7.4772 C.ar    1  UNL1        0.0295
     23 C          60.4462   85.0829    7.1668 C.ar    1  UNL1        0.0046
     24 C          61.8557   85.3058    7.6289 C.ar    1  UNL1        0.0295
     25 C          62.2049   86.5432    8.4015 C.ar    1  UNL1        0.1401
     26 F          63.6145   86.7661    8.8636 F       1  UNL1       -0.2044
     27 C          63.9946   91.0446   13.4450 C.3     1  UNL1        0.1337
     28 C          65.2776   91.6768   12.9932 C.3     1  UNL1        0.1000
     29 C          66.3413   92.0139   13.9956 C.ar    1  UNL1       -0.0061
     30 C          65.9574   92.4573   15.3762 C.ar    1  UNL1       -0.0029
     31 C          67.0211   92.7944   16.3786 C.ar    1  UNL1       -0.0003
     32 C          68.4688   92.6882   16.0005 C.ar    1  UNL1       -0.0000
     33 C          68.8528   92.2448   14.6198 C.ar    1  UNL1       -0.0003
     34 C          67.7890   91.9076   13.6174 C.ar    1  UNL1       -0.0029
     35 N          65.4970   91.9718   11.5389 N.3     1  UNL1       -0.2935
     36 H          64.8272   91.4047   11.0191 H       1  UNL1        0.1236
     37 C          65.3623   93.3763   11.0299 C.3     1  UNL1        0.0692
     38 C          66.5887   94.1846   10.7258 C.3     1  UNL1        0.0230
     39 C          67.3670   93.9233    9.4703 C.3     1  UNL1        0.0431
     40 C          68.2575   92.7199    9.3768 C.2     1  UNL1        0.0504
     41 O          68.6527   91.9808   10.6208 O.co2   1  UNL1       -0.5492
     42 O          68.7529   92.2556    8.0392 O.co2   1  UNL1       -0.5492
@<TRIPOS>UNITY_ATOM_ATTR
41 1
charge -1
@<TRIPOS>BOND
     1    16    17    1
     2    17     9    1
     3     9    10   ar
     4    10    11   ar
     5    11    12   ar
     6    12    13   ar
     7    13     1    1
     8     1     2   ar
     9     2     3   ar
    10     3    18    1
    11    18    19    1
    12    19    20   ar
    13    20    21    1
    14    20    22   ar
    15    22    23   ar
    16    23    24   ar
    17    24    25   ar
    18    25    26    1
    19     3     4   ar
    20     4     5    2
    21     4     6   ar
    22     6    27    1
    23    28    27    1
    24    28    35    1
    25    35    37    1
    26    37    38    1
    27    38    39    1
    28    39    40    1
    29    40    41   ar
    30    40    42   ar
    31    28    29    1
    32    29    30   ar
    33    30    31   ar
    34    31    32   ar
    35    32    33   ar
    36    33    34   ar
    37     6     7   ar
    38     7     8    2
    39    13    14   ar
    40    14    15    1
    41    14     9   ar
    42     7     1   ar
    43    25    19   ar
    44    34    29   ar
    45    35    36    1
@<TRIPOS>MOLECULE
*****
 42 45 0 0 0
SMALL
GASTEIGER

@<TRIPOS>ATOM
      1 C          62.5192   87.4751   11.1489 C.ar    1  UNL1        0.0759
      2 C          62.9717   86.4011   12.0932 C.ar    1  UNL1        0.0848
      3 N          63.6247   86.7708   13.3921 N.ar    1  UNL1       -0.2754
      4 C          63.8252   88.2144   13.7466 C.ar    1  UNL1        0.3341
      5 O          64.4782   88.5840   15.0454 O.2     1  UNL1       -0.2462
      6 N          63.3727   89.2884   12.8022 N.ar    1  UNL1       -0.2470
      7 C          62.7197   88.9188   11.5034 C.ar    1  UNL1        0.2657
      8 O          62.2672   89.9928   10.5591 O.2     1  UNL1       -0.2668
      9 C          59.9322   87.3994    8.1403 C.ar    1  UNL1        0.1660
     10 C          60.5602   86.3664    7.2524 C.ar    1  UNL1        0.0392
     11 C          61.8412   85.7030    7.6633 C.ar    1  UNL1        0.0033
     12 C          62.4942   86.0725    8.9621 C.ar    1  UNL1        0.0026
     13 C          61.8662   87.1055    9.8500 C.ar    1  UNL1        0.0366
     14 C          60.5852   87.7690    9.4391 C.ar    1  UNL1        0.1739
     15 F          59.9572   88.8021   10.3271 F       1  UNL1       -0.2010
     16 C          58.6818   89.2504    6.8136 C.3     1  UNL1        0.2526
     17 O          58.6512   88.0629    7.7294 O.3     1  UNL1       -0.4692
     18 C          64.0772   85.6967   14.3364 C.3     1  UNL1        0.1417
     19 C          63.6017   84.2862   14.1512 C.ar    1  UNL1        0.0555
     20 C          62.4273   83.7815   14.9359 C.ar    1  UNL1        0.1401
     21 F          61.7281   84.6874   15.9059 F       1  UNL1       -0.2044
     22 C          61.9518   82.3710   14.7508 C.ar    1  UNL1        0.0295
     23 C          62.6509   81.4651   13.7810 C.ar    1  UNL1        0.0046
     24 C          63.8253   81.9697   12.9962 C.ar    1  UNL1        0.0295
     25 C          64.3008   83.3803   13.1814 C.ar    1  UNL1        0.1401
     26 F          65.4753   83.8850   12.3966 F       1  UNL1       -0.2044
     27 C          63.5732   90.7321   13.1568 C.3     1  UNL1        0.1337
     28 C          64.8445   91.4292   12.7725 C.3     1  UNL1        0.1000
     29 C          65.8512   91.7874   13.8252 C.ar    1  UNL1       -0.0061
     30 C          65.4000   92.0825   15.2249 C.ar    1  UNL1       -0.0029
     31 C          66.4066   92.4407   16.2776 C.ar    1  UNL1       -0.0003
     32 C          67.8646   92.5039   15.9306 C.ar    1  UNL1       -0.0000
     33 C          68.3158   92.2089   14.5308 C.ar    1  UNL1       -0.0003
     34 C          67.3092   91.8506   13.4781 C.ar    1  UNL1       -0.0029
     35 N          65.1092   91.7681   11.3354 N.3     1  UNL1       -0.2935
     36 H          64.4001   91.2853   10.7836 H       1  UNL1        0.1236
     37 C          65.1041   93.2001   10.8893 C.3     1  UNL1        0.0692
     38 C          66.1590   93.6952    9.9448 C.3     1  UNL1        0.0230
     39 C          66.8890   94.9723   10.2383 C.3     1  UNL1        0.0431
     40 C          66.7040   96.1640    9.3464 C.2     1  UNL1        0.0504
     41 O          67.8992   96.8527    8.7573 O.co2   1  UNL1       -0.5492
     42 O          65.3236   96.6671    9.0435 O.co2   1  UNL1       -0.5492
@<TRIPOS>UNITY_ATOM_ATTR
41 1
charge -1
@<TRIPOS>BOND
     1    16    17    1
     2    17     9    1
     3     9    10   ar
     4    10    11   ar
     5    11    12   ar
     6    12    13   ar
     7    13     1    1
     8     1     2   ar
     9     2     3   ar
    10     3    18    1
    11    18    19    1
    12    19    20   ar
    13    20    21    1
    14    20    22   ar
    15    22    23   ar
    16    23    24   ar
    17    24    25   ar
    18    25    26    1
    19     3     4   ar
    20     4     5    2
    21     4     6   ar
    22     6    27    1
    23    28    27    1
    24    28    35    1
    25    35    37    1
    26    37    38    1
    27    38    39    1
    28    39    40    1
    29    40    41   ar
    30    40    42   ar
    31    28    29    1
    32    29    30   ar
    33    30    31   ar
    34    31    32   ar
    35    32    33   ar
    36    33    34   ar
    37     6     7   ar
    38     7     8    2
    39    13    14   ar
    40    14    15    1
    41    14     9   ar
    42     7     1   ar
    43    25    19   ar
    44    34    29   ar
    45    35    36    1
@<TRIPOS>MOLECULE
*****
 42 45 0 0 0
SMALL
GASTEIGER

@<TRIPOS>ATOM
      1 C          63.8383   89.0083   14.0136 C.ar    1  UNL1        0.0759
      2 C          64.5432   90.2931   14.3336 C.ar    1  UNL1        0.0848
      3 N          64.7577   91.3185   13.2600 N.ar    1  UNL1       -0.2754
      4 C          64.2673   91.0591   11.8664 C.ar    1  UNL1        0.3341
      5 O          64.4818   92.0844   10.7928 O.2     1  UNL1       -0.2462
      6 N          63.5624   89.7742   11.5464 N.ar    1  UNL1       -0.2470
      7 C          63.3479   88.7489   12.6200 C.ar    1  UNL1        0.2657
      8 O          62.6430   87.4640   12.3000 O.2     1  UNL1       -0.2668
      9 C          63.7920   85.5274   15.9191 C.ar    1  UNL1        0.1660
     10 C          63.1949   85.9320   17.2342 C.ar    1  UNL1        0.0392
     11 C          62.8123   87.3622   17.4759 C.ar    1  UNL1        0.0033
     12 C          63.0267   88.3876   16.4023 C.ar    1  UNL1        0.0026
     13 C          63.6238   87.9829   15.0872 C.ar    1  UNL1        0.0366
     14 C          64.0065   86.5528   14.8456 C.ar    1  UNL1        0.1739
     15 F          64.6036   86.1481   13.5304 F       1  UNL1       -0.2010
     16 C          63.4577   83.2954   14.6320 C.3     1  UNL1        0.2526
     17 O          64.1746   84.0972   15.6775 O.3     1  UNL1       -0.4692
     18 C          65.4626   92.6032   13.5801 C.3     1  UNL1        0.1417
     19 C          66.7862   92.5770   14.2853 C.ar    1  UNL1        0.0555
     20 C          68.0449   92.3260   13.5090 C.ar    1  UNL1        0.1401
     21 F          67.9799   92.1012   12.0273 F       1  UNL1       -0.2044
     22 C          69.3685   92.2998   14.2142 C.ar    1  UNL1        0.0295
     23 C          69.4334   92.5245   15.6958 C.ar    1  UNL1        0.0046
     24 C          68.1748   92.7755   16.4722 C.ar    1  UNL1        0.0295
     25 C          66.8512   92.8018   15.7669 C.ar    1  UNL1        0.1401
     26 F          65.5925   93.0528   16.5434 F       1  UNL1       -0.2044
     27 C          63.0719   89.5148   10.1528 C.3     1  UNL1        0.1337
     28 C          61.6165   89.6760    9.8277 C.3     1  UNL1        0.1000
     29 C          60.8836   88.5837    9.1067 C.ar    1  UNL1       -0.0061
     30 C          59.7067   88.9166    8.2384 C.ar    1  UNL1       -0.0029
     31 C          58.9738   87.8243    7.5174 C.ar    1  UNL1       -0.0003
     32 C          59.4179   86.3992    7.6647 C.ar    1  UNL1       -0.0000
     33 C          60.5949   86.0662    8.5330 C.ar    1  UNL1       -0.0003
     34 C          61.3277   87.1585    9.2540 C.ar    1  UNL1       -0.0029
     35 N          60.8939   90.9295   10.2236 N.3     1  UNL1       -0.2935
     36 H          60.4304   91.2795    9.3851 H       1  UNL1        0.1236
     37 C          59.8564   90.8870   11.3061 C.3     1  UNL1        0.0692
     38 C          59.8154   89.7306   12.2606 C.3     1  UNL1        0.0230
     39 C          58.6753   88.7570   12.2107 C.3     1  UNL1        0.0431
     40 C          57.8521   88.5025   13.4385 C.2     1  UNL1        0.0504
     41 O          58.5100   88.4524   14.7856 O.co2   1  UNL1       -0.5492
     42 O          56.3708   88.2982   13.3193 O.co2   1  UNL1       -0.5492
@<TRIPOS>UNITY_ATOM_ATTR
41 1
charge -1
@<TRIPOS>BOND
     1    16    17    1
     2    17     9    1
     3     9    10   ar
     4    10    11   ar
     5    11    12   ar
     6    12    13   ar
     7    13     1    1
     8     1     2   ar
     9     2     3   ar
    10     3    18    1
    11    18    19    1
    12    19    20   ar
    13    20    21    1
    14    20    22   ar
    15    22    23   ar
    16    23    24   ar
    17    24    25   ar
    18    25    26    1
    19     3     4   ar
    20     4     5    2
    21     4     6   ar
    22     6    27    1
    23    28    27    1
    24    28    35    1
    25    35    37    1
    26    37    38    1
    27    38    39    1
    28    39    40    1
    29    40    41   ar
    30    40    42   ar
    31    28    29    1
    32    29    30   ar
    33    30    31   ar
    34    31    32   ar
    35    32    33   ar
    36    33    34   ar
    37     6     7   ar
    38     7     8    2
    39    13    14   ar
    40    14    15    1
    41    14     9   ar
    42     7     1   ar
    43    25    19   ar
    44    34    29   ar
    45    35    36    1
@<TRIPOS>MOLECULE
*****
 42 45 0 0 0
SMALL
GASTEIGER

@<TRIPOS>ATOM
      1 C          63.0059   87.2733   12.6087 C.ar    1  UNL1        0.0759
      2 C          63.5633   88.6651   12.6531 C.ar    1  UNL1        0.0848
      3 N          62.8816   89.7703   11.9020 N.ar    1  UNL1       -0.2754
      4 C          61.6427   89.4835   11.1066 C.ar    1  UNL1        0.3341
      5 O          60.9611   90.5886   10.3555 O.2     1  UNL1       -0.2462
      6 N          61.0853   88.0916   11.0622 N.ar    1  UNL1       -0.2470
      7 C          61.7670   86.9865   11.8132 C.ar    1  UNL1        0.2657
      8 O          61.2096   85.5945   11.7688 O.2     1  UNL1       -0.2668
      9 C          64.5124   83.7076   13.4842 C.ar    1  UNL1        0.1660
     10 C          65.0507   83.9578   14.8617 C.ar    1  UNL1        0.0392
     11 C          64.9074   85.3131   15.4883 C.ar    1  UNL1        0.0033
     12 C          64.2258   86.4182   14.7373 C.ar    1  UNL1        0.0026
     13 C          63.6875   86.1681   13.3597 C.ar    1  UNL1        0.0366
     14 C          63.8309   84.8127   12.7332 C.ar    1  UNL1        0.1739
     15 F          63.2926   84.5626   11.3556 F       1  UNL1       -0.2010
     16 C          63.4759   81.4284   12.7906 C.3     1  UNL1        0.2526
     17 O          64.6558   82.3523   12.8576 O.3     1  UNL1       -0.4692
     18 C          63.4390   91.1622   11.9464 C.3     1  UNL1        0.1417
     19 C          64.6626   91.4544   12.7633 C.ar    1  UNL1        0.0555
     20 C          64.6334   91.2673   14.2512 C.ar    1  UNL1        0.1401
     21 F          63.3804   90.7879   14.9224 F       1  UNL1       -0.2044
     22 C          65.8570   91.5595   15.0681 C.ar    1  UNL1        0.0295
     23 C          67.1099   92.0388   14.3970 C.ar    1  UNL1        0.0046
     24 C          67.1392   92.2260   12.9091 C.ar    1  UNL1        0.0295
     25 C          65.9155   91.9338   12.0922 C.ar    1  UNL1        0.1401
     26 F          65.9448   92.1209   10.6041 F       1  UNL1       -0.2044
     27 C          59.8464   87.8048   10.2667 C.3     1  UNL1        0.1337
     28 C          59.9399   87.5851    8.7859 C.3     1  UNL1        0.1000
     29 C          60.8780   86.5503    8.2390 C.ar    1  UNL1       -0.0061
     30 C          62.2805   86.4577    8.7628 C.ar    1  UNL1       -0.0029
     31 C          63.2186   85.4228    8.2159 C.ar    1  UNL1       -0.0003
     32 C          62.7542   84.4806    7.1452 C.ar    1  UNL1       -0.0000
     33 C          61.3517   84.5732    6.6213 C.ar    1  UNL1       -0.0003
     34 C          60.4136   85.6080    7.1682 C.ar    1  UNL1       -0.0029
     35 N          59.0954   88.4003    7.8519 N.3     1  UNL1       -0.2935
     36 H          58.3456   88.8065    8.4115 H       1  UNL1        0.1236
     37 C          59.7107   89.5238    7.0716 C.3     1  UNL1        0.0692
     38 C          59.0718   89.9898    5.7970 C.3     1  UNL1        0.0230
     39 C          59.6716   91.1315    5.0310 C.3     1  UNL1        0.0431
     40 C          58.7825   92.1703    4.4143 C.2     1  UNL1        0.0504
     41 O          57.3624   92.3119    4.8761 O.co2   1  UNL1       -0.5492
     42 O          59.3135   93.0676    3.3359 O.co2   1  UNL1       -0.5492
@<TRIPOS>UNITY_ATOM_ATTR
41 1
charge -1
@<TRIPOS>BOND
     1    16    17    1
     2    17     9    1
     3     9    10   ar
     4    10    11   ar
     5    11    12   ar
     6    12    13   ar
     7    13     1    1
     8     1     2   ar
     9     2     3   ar
    10     3    18    1
    11    18    19    1
    12    19    20   ar
    13    20    21    1
    14    20    22   ar
    15    22    23   ar
    16    23    24   ar
    17    24    25   ar
    18    25    26    1
    19     3     4   ar
    20     4     5    2
    21     4     6   ar
    22     6    27    1
    23    28    27    1
    24    28    35    1
    25    35    37    1
    26    37    38    1
    27    38    39    1
    28    39    40    1
    29    40    41   ar
    30    40    42   ar
    31    28    29    1
    32    29    30   ar
    33    30    31   ar
    34    31    32   ar
    35    32    33   ar
    36    33    34   ar
    37     6     7   ar
    38     7     8    2
    39    13    14   ar
    40    14    15    1
    41    14     9   ar
    42     7     1   ar
    43    25    19   ar
    44    34    29   ar
    45    35    36    1
