@<TRIPOS>MOLECULE
*****
 36 40 0 0 0
SMALL
GASTEIGER

@<TRIPOS>ATOM
      1 C          62.3950   86.9334   12.0959 C.ar    1  UNL1        0.2040
      2 C          61.9230   87.3071   10.7220 C.ar    1  UNL1        0.1628
      3 N          61.0975   86.3417    9.9242 N.pl3   1  UNL1       -0.3401
      4 N          62.2765   88.6462   10.1459 N.ar    1  UNL1       -0.2263
      5 C          63.1020   89.6116   10.9438 C.ar    1  UNL1        0.1036
      6 C          63.5740   89.2379   12.3177 C.ar    1  UNL1        0.0600
      7 C          64.3957   89.9766   13.3322 C.ar    1  UNL1        0.0452
      8 C          64.5500   89.0940   14.5352 C.ar    1  UNL1        0.1798
      9 O          63.8237   87.8099   14.2642 O.2     1  UNL1       -0.4472
     10 C          63.2205   87.8988   12.8937 C.ar    1  UNL1        0.1834
     11 H          60.8655   85.4628   10.3023 H       1  UNL1        0.1438
     12 H          60.7877   86.5870    9.0224 H       1  UNL1        0.1438
     13 C          64.9634   91.3557   13.1718 C.ar    1  UNL1        0.0428
     14 C          65.2706   92.3173   14.2813 C.ar    1  UNL1        0.1217
     15 N          65.8206   93.5713   13.6689 N.ar    1  UNL1       -0.1677
     16 N          65.8533   93.3847   12.1809 N.ar    1  UNL1       -0.2512
     17 C          65.3235   92.0154   11.8736 C.ar    1  UNL1        0.0966
     18 C          66.3318   94.3908   11.1765 C.3     1  UNL1        0.1080
     19 C          66.0468   95.8492   11.3814 C.3     1  UNL1        0.0415
     20 C          66.5253   96.8553   10.3770 C.3     1  UNL1        0.0706
     21 N          67.2888   96.4030    9.1677 N.3     1  UNL1       -0.2974
     22 C          67.5738   94.9447    8.9627 C.3     1  UNL1        0.0706
     23 C          67.0953   93.9385    9.9671 C.3     1  UNL1        0.0415
     24 H          68.1909   96.8784    9.1941 H       1  UNL1        0.1232
     25 O          62.0415   85.5943   12.6720 O.3     1  UNL1       -0.4688
     26 C          64.2763   84.9856   13.8490 C.3     1  UNL1        0.0524
     27 C          63.1221   84.5983   12.9727 C.3     1  UNL1        0.1902
     28 C          63.0484   83.2151   12.3972 C.ar    1  UNL1        0.0405
     29 C          63.4693   82.9696   10.9785 C.ar    1  UNL1        0.0580
     30 CL         63.9638   84.1074   10.1354 Cl      1  UNL1       -0.0824
     31 C          63.3956   81.5864   10.4030 C.ar    1  UNL1        0.0135
     32 C          62.9010   80.4486   11.2462 C.ar    1  UNL1        0.0314
     33 C          62.4802   80.6941   12.6648 C.ar    1  UNL1        0.1505
     34 F          61.9857   79.5563   13.5079 F       1  UNL1       -0.2033
     35 C          62.5539   82.0773   13.2403 C.ar    1  UNL1        0.0852
     36 CL         62.1330   82.3228   14.6590 Cl      1  UNL1       -0.0801
@<TRIPOS>BOND
     1    26    27    1
     2    27    25    1
     3    25     1    1
     4     1     2   ar
     5     2     3    1
     6     2     4   ar
     7     4     5   ar
     8     5     6   ar
     9     6     7   ar
    10     7    13    1
    11    13    14   ar
    12    14    15   ar
    13    15    16   ar
    14    16    18    1
    15    18    19    1
    16    19    20    1
    17    20    21    1
    18    21    22    1
    19    22    23    1
    20    16    17   ar
    21     7     8   ar
    22     8     9   ar
    23     9    10   ar
    24    27    28    1
    25    28    29   ar
    26    29    30    1
    27    29    31   ar
    28    31    32   ar
    29    32    33   ar
    30    33    34    1
    31    33    35   ar
    32    35    36    1
    33    10     1   ar
    34    35    28   ar
    35    10     6   ar
    36    17    13   ar
    37    23    18    1
    38     3    11    1
    39     3    12    1
    40    21    24    1
@<TRIPOS>MOLECULE
*****
 36 40 0 0 0
SMALL
GASTEIGER

@<TRIPOS>ATOM
      1 C          64.0655   91.3870   12.1350 C.ar    1  UNL1        0.2040
      2 C          63.3758   90.9647   10.8716 C.ar    1  UNL1        0.1628
      3 N          63.1628   91.9558    9.7661 N.pl3   1  UNL1       -0.3401
      4 N          62.8990   89.5512   10.7139 N.ar    1  UNL1       -0.2263
      5 C          63.1120   88.5601   11.8195 C.ar    1  UNL1        0.1036
      6 C          63.8017   88.9824   13.0828 C.ar    1  UNL1        0.0600
      7 C          64.1501   88.2333   14.3348 C.ar    1  UNL1        0.0452
      8 C          64.8421   89.1837   15.2663 C.ar    1  UNL1        0.1798
      9 O          64.9215   90.5202   14.5900 O.2     1  UNL1       -0.4472
     10 C          64.2785   90.3958   13.2405 C.ar    1  UNL1        0.1834
     11 H          63.4757   92.8835    9.8696 H       1  UNL1        0.1438
     12 H          62.7102   91.6786    8.9369 H       1  UNL1        0.1438
     13 C          63.8577   86.7875   14.6074 C.ar    1  UNL1        0.0428
     14 C          63.7320   86.1534   15.9609 C.ar    1  UNL1        0.1217
     15 N          63.4363   84.6959   15.7643 N.ar    1  UNL1       -0.1677
     16 N          63.3793   84.4294   14.2893 N.ar    1  UNL1       -0.2512
     17 C          63.6398   85.7221   13.5742 C.ar    1  UNL1        0.0966
     18 C          63.1093   83.1031   13.6428 C.3     1  UNL1        0.1080
     19 C          62.2809   82.0758   14.3561 C.3     1  UNL1        0.0415
     20 C          62.0109   80.7495   13.7096 C.3     1  UNL1        0.0706
     21 N          62.5692   80.4504   12.3499 N.3     1  UNL1       -0.2974
     22 C          63.3975   81.4775   11.6366 C.3     1  UNL1        0.0706
     23 C          63.6676   82.8040   12.2831 C.3     1  UNL1        0.0415
     24 H          61.7750   80.2408   11.7451 H       1  UNL1        0.1232
     25 O          64.5423   92.8004   12.2927 O.3     1  UNL1       -0.4688
     26 C          66.7176   93.2620   13.6363 C.3     1  UNL1        0.0524
     27 C          66.0124   93.0971   12.3227 C.3     1  UNL1        0.1902
     28 C          66.7772   93.2290   11.0391 C.ar    1  UNL1        0.0405
     29 C          67.9183   92.3001   10.7472 C.ar    1  UNL1        0.0580
     30 CL         68.2946   91.2395   11.7389 Cl      1  UNL1       -0.0824
     31 C          68.6832   92.4320    9.4636 C.ar    1  UNL1        0.0135
     32 C          68.3069   93.4927    8.4719 C.ar    1  UNL1        0.0314
     33 C          67.1658   94.4215    8.7639 C.ar    1  UNL1        0.1505
     34 F          66.7896   95.4822    7.7722 F       1  UNL1       -0.2033
     35 C          66.4010   94.2896   10.0475 C.ar    1  UNL1        0.0852
     36 CL         65.2599   95.2184   10.3394 Cl      1  UNL1       -0.0801
@<TRIPOS>BOND
     1    26    27    1
     2    27    25    1
     3    25     1    1
     4     1     2   ar
     5     2     3    1
     6     2     4   ar
     7     4     5   ar
     8     5     6   ar
     9     6     7   ar
    10     7    13    1
    11    13    14   ar
    12    14    15   ar
    13    15    16   ar
    14    16    18    1
    15    18    19    1
    16    19    20    1
    17    20    21    1
    18    21    22    1
    19    22    23    1
    20    16    17   ar
    21     7     8   ar
    22     8     9   ar
    23     9    10   ar
    24    27    28    1
    25    28    29   ar
    26    29    30    1
    27    29    31   ar
    28    31    32   ar
    29    32    33   ar
    30    33    34    1
    31    33    35   ar
    32    35    36    1
    33    10     1   ar
    34    35    28   ar
    35    10     6   ar
    36    17    13   ar
    37    23    18    1
    38     3    11    1
    39     3    12    1
    40    21    24    1
@<TRIPOS>MOLECULE
*****
 36 40 0 0 0
SMALL
GASTEIGER

@<TRIPOS>ATOM
      1 C          64.0616   91.4240   12.0809 C.ar    1  UNL1        0.2040
      2 C          63.3676   90.9845   10.8257 C.ar    1  UNL1        0.1628
      3 N          63.1529   91.9599    9.7066 N.pl3   1  UNL1       -0.3401
      4 N          62.8885   89.5696   10.6898 N.ar    1  UNL1       -0.2263
      5 C          63.1032   88.5942   11.8090 C.ar    1  UNL1        0.1036
      6 C          63.7971   89.0338   13.0641 C.ar    1  UNL1        0.0600
      7 C          64.1480   88.3023   14.3258 C.ar    1  UNL1        0.0452
      8 C          64.8440   89.2651   15.2415 C.ar    1  UNL1        0.1798
      9 O          64.9233   90.5916   14.5457 O.2     1  UNL1       -0.4472
     10 C          64.2763   90.4487   13.2000 C.ar    1  UNL1        0.1834
     11 H          63.4674   92.8885    9.7958 H       1  UNL1        0.1438
     12 H          62.6975   91.6714    8.8828 H       1  UNL1        0.1438
     13 C          63.8543   86.8611   14.6201 C.ar    1  UNL1        0.0428
     14 C          63.7356   86.2459   15.9830 C.ar    1  UNL1        0.1217
     15 N          63.4357   84.7866   15.8083 N.ar    1  UNL1       -0.1677
     16 N          63.3692   84.4999   14.3374 N.ar    1  UNL1       -0.2512
     17 C          63.6279   85.7820   13.6031 C.ar    1  UNL1        0.0966
     18 C          63.0926   83.1653   13.7110 C.3     1  UNL1        0.1080
     19 C          63.6650   82.8358   12.3641 C.3     1  UNL1        0.0415
     20 C          63.3884   81.5013   11.7377 C.3     1  UNL1        0.0706
     21 N          62.5393   80.4962   12.4580 N.3     1  UNL1       -0.2974
     22 C          61.9669   80.8256   13.8048 C.3     1  UNL1        0.0706
     23 C          62.2435   82.1602   14.4313 C.3     1  UNL1        0.0415
     24 H          63.1107   79.6597   12.5775 H       1  UNL1        0.1232
     25 O          64.5407   92.8389   12.2168 O.3     1  UNL1       -0.4688
     26 C          66.8391   93.0581   13.4084 C.3     1  UNL1        0.0524
     27 C          66.0088   93.1421   12.1620 C.3     1  UNL1        0.1902
     28 C          66.6465   93.5293   10.8607 C.ar    1  UNL1        0.0405
     29 C          66.2855   94.8299   10.2063 C.ar    1  UNL1        0.0580
     30 CL         65.2868   95.7432   10.8531 Cl      1  UNL1       -0.0824
     31 C          66.9232   95.2172    8.9050 C.ar    1  UNL1        0.0135
     32 C          67.9220   94.3038    8.2581 C.ar    1  UNL1        0.0314
     33 C          68.2829   93.0033    8.9125 C.ar    1  UNL1        0.1505
     34 F          69.2816   92.0900    8.2657 F       1  UNL1       -0.2033
     35 C          67.6452   92.6161   10.2138 C.ar    1  UNL1        0.0852
     36 CL         68.0062   91.3155   10.8682 Cl      1  UNL1       -0.0801
@<TRIPOS>BOND
     1    26    27    1
     2    27    25    1
     3    25     1    1
     4     1     2   ar
     5     2     3    1
     6     2     4   ar
     7     4     5   ar
     8     5     6   ar
     9     6     7   ar
    10     7    13    1
    11    13    14   ar
    12    14    15   ar
    13    15    16   ar
    14    16    18    1
    15    18    19    1
    16    19    20    1
    17    20    21    1
    18    21    22    1
    19    22    23    1
    20    16    17   ar
    21     7     8   ar
    22     8     9   ar
    23     9    10   ar
    24    27    28    1
    25    28    29   ar
    26    29    30    1
    27    29    31   ar
    28    31    32   ar
    29    32    33   ar
    30    33    34    1
    31    33    35   ar
    32    35    36    1
    33    10     1   ar
    34    35    28   ar
    35    10     6   ar
    36    17    13   ar
    37    23    18    1
    38     3    11    1
    39     3    12    1
    40    21    24    1
@<TRIPOS>MOLECULE
*****
 36 40 0 0 0
SMALL
GASTEIGER

@<TRIPOS>ATOM
      1 C          64.5484   91.6067   13.2574 C.ar    1  UNL1        0.2040
      2 C          65.0160   91.0450   14.5674 C.ar    1  UNL1        0.1628
      3 N          65.7129   91.9307   15.5572 N.pl3   1  UNL1       -0.3401
      4 N          64.7866   89.5976   14.8875 N.ar    1  UNL1       -0.2263
      5 C          64.0896   88.7119   13.8976 C.ar    1  UNL1        0.1036
      6 C          63.6221   89.2736   12.5877 C.ar    1  UNL1        0.0600
      7 C          62.9118   88.6484   11.4238 C.ar    1  UNL1        0.0452
      8 C          62.7022   89.7094   10.3844 C.ar    1  UNL1        0.1798
      9 O          63.2830   90.9903   10.9059 O.2     1  UNL1       -0.4472
     10 C          63.8515   90.7210   12.2676 C.ar    1  UNL1        0.1834
     11 H          65.8634   92.8806   15.3472 H       1  UNL1        0.1438
     12 H          66.0197   91.5620   16.4170 H       1  UNL1        0.1438
     13 C          62.4859   87.2140   11.3179 C.ar    1  UNL1        0.0428
     14 C          61.4880   86.6602   10.3446 C.ar    1  UNL1        0.1217
     15 N          61.3685   85.1855   10.5919 N.ar    1  UNL1       -0.1677
     16 N          62.2926   84.8280   11.7181 N.ar    1  UNL1       -0.2512
     17 C          62.9832   86.0817   12.1668 C.ar    1  UNL1        0.0966
     18 C          62.4912   83.4575   12.2944 C.3     1  UNL1        0.1080
     19 C          62.3170   83.2305   13.7669 C.3     1  UNL1        0.0415
     20 C          62.5156   81.8600   14.3432 C.3     1  UNL1        0.0706
     21 N          62.8884   80.7163   13.4471 N.3     1  UNL1       -0.2974
     22 C          63.0625   80.9432   11.9746 C.3     1  UNL1        0.0706
     23 C          62.8639   82.3138   11.3982 C.3     1  UNL1        0.0415
     24 H          62.1597   80.0104   13.5521 H       1  UNL1        0.1232
     25 O          64.7778   93.0540   12.9374 O.3     1  UNL1       -0.4688
     26 C          66.8883   94.2392   13.8814 C.3     1  UNL1        0.0524
     27 C          66.1741   93.5677   12.7461 C.3     1  UNL1        0.1902
     28 C          66.8562   93.4099   11.4195 C.ar    1  UNL1        0.0405
     29 C          67.8919   92.3413   11.2311 C.ar    1  UNL1        0.0580
     30 CL         68.2455   91.4306   12.3693 Cl      1  UNL1       -0.0824
     31 C          68.5740   92.1834    9.9045 C.ar    1  UNL1        0.0135
     32 C          68.2203   93.0942    8.7663 C.ar    1  UNL1        0.0314
     33 C          67.1846   94.1627    8.9547 C.ar    1  UNL1        0.1505
     34 F          66.8310   95.0735    7.8165 F       1  UNL1       -0.2033
     35 C          66.5025   94.3206   10.2813 C.ar    1  UNL1        0.0852
     36 CL         65.4669   95.3891   10.4697 Cl      1  UNL1       -0.0801
@<TRIPOS>BOND
     1    26    27    1
     2    27    25    1
     3    25     1    1
     4     1     2   ar
     5     2     3    1
     6     2     4   ar
     7     4     5   ar
     8     5     6   ar
     9     6     7   ar
    10     7    13    1
    11    13    14   ar
    12    14    15   ar
    13    15    16   ar
    14    16    18    1
    15    18    19    1
    16    19    20    1
    17    20    21    1
    18    21    22    1
    19    22    23    1
    20    16    17   ar
    21     7     8   ar
    22     8     9   ar
    23     9    10   ar
    24    27    28    1
    25    28    29   ar
    26    29    30    1
    27    29    31   ar
    28    31    32   ar
    29    32    33   ar
    30    33    34    1
    31    33    35   ar
    32    35    36    1
    33    10     1   ar
    34    35    28   ar
    35    10     6   ar
    36    17    13   ar
    37    23    18    1
    38     3    11    1
    39     3    12    1
    40    21    24    1
@<TRIPOS>MOLECULE
*****
 36 40 0 0 0
SMALL
GASTEIGER

@<TRIPOS>ATOM
      1 C          63.7024   90.8799   12.1711 C.ar    1  UNL1        0.2040
      2 C          63.0263   90.5108   10.8840 C.ar    1  UNL1        0.1628
      3 N          62.7555   91.5634    9.8503 N.pl3   1  UNL1       -0.3401
      4 N          62.6211   89.0889   10.6306 N.ar    1  UNL1       -0.2263
      5 C          62.8920   88.0363   11.6644 C.ar    1  UNL1        0.1036
      6 C          63.5681   88.4055   12.9514 C.ar    1  UNL1        0.0600
      7 C          63.9628   87.5908   14.1475 C.ar    1  UNL1        0.0452
      8 C          64.6120   88.5092   15.1401 C.ar    1  UNL1        0.1798
      9 O          64.6184   89.8914   14.5575 O.2     1  UNL1       -0.4472
     10 C          63.9733   89.8273   13.2048 C.ar    1  UNL1        0.1834
     11 H          63.0214   92.4966   10.0166 H       1  UNL1        0.1438
     12 H          62.3118   91.3211    9.0055 H       1  UNL1        0.1438
     13 C          63.7464   86.1167   14.3206 C.ar    1  UNL1        0.0428
     14 C          63.6920   85.3808   15.6265 C.ar    1  UNL1        0.1217
     15 N          63.4583   83.9288   15.3311 N.ar    1  UNL1       -0.1677
     16 N          63.3683   83.7674   13.8425 N.ar    1  UNL1       -0.2512
     17 C          63.5463   85.1195   13.2180 C.ar    1  UNL1        0.0966
     18 C          63.1402   82.4798   13.1076 C.3     1  UNL1        0.1080
     19 C          63.3873   82.4058   11.6298 C.3     1  UNL1        0.0415
     20 C          63.1592   81.1182   10.8949 C.3     1  UNL1        0.0706
     21 N          62.6842   79.9046   11.6376 N.3     1  UNL1       -0.2974
     22 C          62.4371   79.9786   13.1153 C.3     1  UNL1        0.0706
     23 C          62.6652   81.2663   13.8503 C.3     1  UNL1        0.0415
     24 H          63.3846   79.1775   11.4922 H       1  UNL1        0.1232
     25 O          64.1076   92.3018   12.4245 O.3     1  UNL1       -0.4688
     26 C          65.4937   93.6554   10.6935 C.3     1  UNL1        0.0524
     27 C          65.4305   92.8046   11.9272 C.3     1  UNL1        0.1902
     28 C          66.6901   92.4566   12.6636 C.ar    1  UNL1        0.0405
     29 C          67.8969   91.9882   11.9058 C.ar    1  UNL1        0.0580
     30 CL         67.8441   91.8678   10.4116 Cl      1  UNL1       -0.0824
     31 C          69.1565   91.6402   12.6422 C.ar    1  UNL1        0.0135
     32 C          69.2092   91.7606   14.1365 C.ar    1  UNL1        0.0314
     33 C          68.0024   92.2290   14.8943 C.ar    1  UNL1        0.1505
     34 F          68.0552   92.3494   16.3884 F       1  UNL1       -0.2033
     35 C          66.7429   92.5770   14.1578 C.ar    1  UNL1        0.0852
     36 CL         65.5361   93.0454   14.9156 Cl      1  UNL1       -0.0801
@<TRIPOS>BOND
     1    26    27    1
     2    27    25    1
     3    25     1    1
     4     1     2   ar
     5     2     3    1
     6     2     4   ar
     7     4     5   ar
     8     5     6   ar
     9     6     7   ar
    10     7    13    1
    11    13    14   ar
    12    14    15   ar
    13    15    16   ar
    14    16    18    1
    15    18    19    1
    16    19    20    1
    17    20    21    1
    18    21    22    1
    19    22    23    1
    20    16    17   ar
    21     7     8   ar
    22     8     9   ar
    23     9    10   ar
    24    27    28    1
    25    28    29   ar
    26    29    30    1
    27    29    31   ar
    28    31    32   ar
    29    32    33   ar
    30    33    34    1
    31    33    35   ar
    32    35    36    1
    33    10     1   ar
    34    35    28   ar
    35    10     6   ar
    36    17    13   ar
    37    23    18    1
    38     3    11    1
    39     3    12    1
    40    21    24    1
@<TRIPOS>MOLECULE
*****
 36 40 0 0 0
SMALL
GASTEIGER

@<TRIPOS>ATOM
      1 C          62.8417   85.0505   12.3816 C.ar    1  UNL1        0.2040
      2 C          63.5874   84.1228   11.4687 C.ar    1  UNL1        0.1628
      3 N          64.5585   83.1311   12.0374 N.pl3   1  UNL1       -0.3401
      4 N          63.3620   84.1868    9.9871 N.ar    1  UNL1       -0.2263
      5 C          62.3908   85.1785    9.4184 C.ar    1  UNL1        0.1036
      6 C          61.6451   86.1062   10.3312 C.ar    1  UNL1        0.0600
      7 C          60.6327   87.1798   10.0624 C.ar    1  UNL1        0.0452
      8 C          60.2325   87.7795   11.3778 C.ar    1  UNL1        0.1798
      9 O          60.9975   87.0763   12.4596 O.2     1  UNL1       -0.4472
     10 C          61.8705   86.0422   11.8128 C.ar    1  UNL1        0.1834
     11 H          64.7065   83.0892   13.0099 H       1  UNL1        0.1438
     12 H          65.0480   82.5223   11.4383 H       1  UNL1        0.1438
     13 C          60.1120   87.5831    8.7147 C.ar    1  UNL1        0.0428
     14 C          59.5925   86.6555    7.6566 C.ar    1  UNL1        0.1217
     15 N          59.1788   87.4840    6.4764 N.ar    1  UNL1       -0.1677
     16 N          59.4427   88.9235    6.8053 N.ar    1  UNL1       -0.2512
     17 C          60.0195   88.9848    8.1886 C.ar    1  UNL1        0.0966
     18 C          59.1766   90.0959    5.9082 C.3     1  UNL1        0.1080
     19 C          60.3162   90.7889    5.2217 C.3     1  UNL1        0.0415
     20 C          60.0500   91.9613    4.3247 C.3     1  UNL1        0.0706
     21 N          58.6444   92.4407    4.1141 N.3     1  UNL1       -0.2974
     22 C          57.5048   91.7478    4.8006 C.3     1  UNL1        0.0706
     23 C          57.7709   90.5753    5.6977 C.3     1  UNL1        0.0415
     24 H          58.4616   92.3860    3.1121 H       1  UNL1        0.1232
     25 O          63.0671   84.9865   13.8631 O.3     1  UNL1       -0.4688
     26 C          65.5740   85.4042   14.4029 C.3     1  UNL1        0.0524
     27 C          64.1375   85.8257   14.4958 C.3     1  UNL1        0.1902
     28 C          63.7712   87.0864   15.2215 C.ar    1  UNL1        0.0405
     29 C          63.3945   87.0341   16.6725 C.ar    1  UNL1        0.0580
     30 CL         63.3840   85.7212   17.3978 Cl      1  UNL1       -0.0824
     31 C          63.0282   88.2948   17.3981 C.ar    1  UNL1        0.0135
     32 C          63.0387   89.6077   16.6727 C.ar    1  UNL1        0.0314
     33 C          63.4154   89.6600   15.2218 C.ar    1  UNL1        0.1505
     34 F          63.4258   90.9729   14.4965 F       1  UNL1       -0.2033
     35 C          63.7816   88.3993   14.4962 C.ar    1  UNL1        0.0852
     36 CL         64.1584   88.4515   13.0452 Cl      1  UNL1       -0.0801
@<TRIPOS>BOND
     1    26    27    1
     2    27    25    1
     3    25     1    1
     4     1     2   ar
     5     2     3    1
     6     2     4   ar
     7     4     5   ar
     8     5     6   ar
     9     6     7   ar
    10     7    13    1
    11    13    14   ar
    12    14    15   ar
    13    15    16   ar
    14    16    18    1
    15    18    19    1
    16    19    20    1
    17    20    21    1
    18    21    22    1
    19    22    23    1
    20    16    17   ar
    21     7     8   ar
    22     8     9   ar
    23     9    10   ar
    24    27    28    1
    25    28    29   ar
    26    29    30    1
    27    29    31   ar
    28    31    32   ar
    29    32    33   ar
    30    33    34    1
    31    33    35   ar
    32    35    36    1
    33    10     1   ar
    34    35    28   ar
    35    10     6   ar
    36    17    13   ar
    37    23    18    1
    38     3    11    1
    39     3    12    1
    40    21    24    1
@<TRIPOS>MOLECULE
*****
 36 40 0 0 0
SMALL
GASTEIGER

@<TRIPOS>ATOM
      1 C          61.2718   87.7241   10.9584 C.ar    1  UNL1        0.2040
      2 C          61.9624   88.9576   11.4601 C.ar    1  UNL1        0.1628
      3 N          62.6927   88.9280   12.7699 N.pl3   1  UNL1       -0.3401
      4 N          61.9226   90.2206   10.6519 N.ar    1  UNL1       -0.2263
      5 C          61.1922   90.2502    9.3420 C.ar    1  UNL1        0.1036
      6 C          60.5016   89.0167    8.8404 C.ar    1  UNL1        0.0600
      7 C          59.7091   88.7459    7.5960 C.ar    1  UNL1        0.0452
      8 C          59.2590   87.3156    7.6351 C.ar    1  UNL1        0.1798
      9 O          59.7735   86.7024    8.9036 O.2     1  UNL1       -0.4472
     10 C          60.5414   87.7537    9.6486 C.ar    1  UNL1        0.1834
     11 H          62.7189   88.0990   13.3003 H       1  UNL1        0.1438
     12 H          63.1460   89.7376   13.0992 H       1  UNL1        0.1438
     13 C          59.4177   89.7324    6.5042 C.ar    1  UNL1        0.0428
     14 C          58.0657   90.2695    6.1390 C.ar    1  UNL1        0.1217
     15 N          58.2396   91.2240    4.9949 N.ar    1  UNL1       -0.1677
     16 N          59.6993   91.2767    4.6532 N.ar    1  UNL1       -0.2512
     17 C          60.4274   90.3549    5.5859 C.ar    1  UNL1        0.0966
     18 C          60.3215   92.1058    3.5690 C.3     1  UNL1        0.1080
     19 C          59.4692   93.0251    2.7451 C.3     1  UNL1        0.0415
     20 C          60.0914   93.8542    1.6609 C.3     1  UNL1        0.0706
     21 N          61.5659   93.7640    1.4005 N.3     1  UNL1       -0.2974
     22 C          62.4182   92.8448    2.2243 C.3     1  UNL1        0.0706
     23 C          61.7960   92.0157    3.3086 C.3     1  UNL1        0.0415
     24 H          61.9442   94.7035    1.5213 H       1  UNL1        0.1232
     25 O          61.3116   86.4611   11.7666 O.3     1  UNL1       -0.4688
     26 C          62.8975   85.1921   10.1465 C.3     1  UNL1        0.0524
     27 C          62.4033   85.4582   11.5375 C.3     1  UNL1        0.1902
     28 C          63.0007   84.7214   12.6995 C.ar    1  UNL1        0.0405
     29 C          63.7549   85.4727   13.7564 C.ar    1  UNL1        0.0580
     30 CL         63.9115   86.9607   13.6512 Cl      1  UNL1       -0.0824
     31 C          64.3523   84.7359   14.9183 C.ar    1  UNL1        0.0135
     32 C          64.1955   83.2477   15.0235 C.ar    1  UNL1        0.0314
     33 C          63.4414   82.4965   13.9666 C.ar    1  UNL1        0.1505
     34 F          63.2847   81.0084   14.0718 F       1  UNL1       -0.2033
     35 C          62.8440   83.2333   12.8047 C.ar    1  UNL1        0.0852
     36 CL         62.0899   82.4821   11.7478 Cl      1  UNL1       -0.0801
@<TRIPOS>BOND
     1    26    27    1
     2    27    25    1
     3    25     1    1
     4     1     2   ar
     5     2     3    1
     6     2     4   ar
     7     4     5   ar
     8     5     6   ar
     9     6     7   ar
    10     7    13    1
    11    13    14   ar
    12    14    15   ar
    13    15    16   ar
    14    16    18    1
    15    18    19    1
    16    19    20    1
    17    20    21    1
    18    21    22    1
    19    22    23    1
    20    16    17   ar
    21     7     8   ar
    22     8     9   ar
    23     9    10   ar
    24    27    28    1
    25    28    29   ar
    26    29    30    1
    27    29    31   ar
    28    31    32   ar
    29    32    33   ar
    30    33    34    1
    31    33    35   ar
    32    35    36    1
    33    10     1   ar
    34    35    28   ar
    35    10     6   ar
    36    17    13   ar
    37    23    18    1
    38     3    11    1
    39     3    12    1
    40    21    24    1
@<TRIPOS>MOLECULE
*****
 36 40 0 0 0
SMALL
GASTEIGER

@<TRIPOS>ATOM
      1 C          63.4540   90.2297   12.5375 C.ar    1  UNL1        0.2040
      2 C          62.7358   89.9739   11.2456 C.ar    1  UNL1        0.1628
      3 N          62.3701   91.1209   10.3509 N.pl3   1  UNL1       -0.3401
      4 N          62.3832   88.5710   10.8486 N.ar    1  UNL1       -0.2263
      5 C          62.7490   87.4239   11.7434 C.ar    1  UNL1        0.1036
      6 C          63.4672   87.6798   13.0351 C.ar    1  UNL1        0.0600
      7 C          63.9534   86.7569   14.1130 C.ar    1  UNL1        0.0452
      8 C          64.6065   87.5894   15.1763 C.ar    1  UNL1        0.1798
      9 O          64.5238   89.0268   14.7555 O.2     1  UNL1       -0.4472
     10 C          63.8197   89.0827   13.4322 C.ar    1  UNL1        0.1834
     11 H          62.6014   92.0417   10.6116 H       1  UNL1        0.1438
     12 H          61.8987   90.9530    9.5031 H       1  UNL1        0.1438
     13 C          63.8116   85.2637   14.1255 C.ar    1  UNL1        0.0428
     14 C          63.9157   84.3782   15.3317 C.ar    1  UNL1        0.1217
     15 N          63.7091   82.9610   14.8856 N.ar    1  UNL1       -0.1677
     16 N          63.4773   82.9707   13.4036 N.ar    1  UNL1       -0.2512
     17 C          63.5406   84.3939   12.9338 C.ar    1  UNL1        0.0966
     18 C          63.2263   81.7684   12.5426 C.3     1  UNL1        0.1080
     19 C          63.4247   81.8542   11.0582 C.3     1  UNL1        0.0415
     20 C          63.1737   80.6519   10.1972 C.3     1  UNL1        0.0706
     21 N          62.7242   79.3636   10.8205 N.3     1  UNL1       -0.2974
     22 C          62.5258   79.2778   12.3048 C.3     1  UNL1        0.0706
     23 C          62.7768   80.4802   13.1659 C.3     1  UNL1        0.0415
     24 H          63.4201   78.6593   10.5753 H       1  UNL1        0.1232
     25 O          63.8065   91.6326   12.9345 O.3     1  UNL1       -0.4688
     26 C          65.4008   92.7430   11.2096 C.3     1  UNL1        0.0524
     27 C          65.1519   92.1957   12.5838 C.3     1  UNL1        0.1902
     28 C          66.2483   92.2115   13.6073 C.ar    1  UNL1        0.0405
     29 C          65.9110   92.2976   15.0664 C.ar    1  UNL1        0.0580
     30 CL         64.4774   92.3679   15.5020 Cl      1  UNL1       -0.0824
     31 C          67.0074   92.3134   16.0900 C.ar    1  UNL1        0.0135
     32 C          68.4411   92.2431   15.6544 C.ar    1  UNL1        0.0314
     33 C          68.7783   92.1570   14.1954 C.ar    1  UNL1        0.1505
     34 F          70.2120   92.0867   13.7599 F       1  UNL1       -0.2033
     35 C          67.6819   92.1412   13.1718 C.ar    1  UNL1        0.0852
     36 CL         68.0191   92.0552   11.7128 Cl      1  UNL1       -0.0801
@<TRIPOS>BOND
     1    26    27    1
     2    27    25    1
     3    25     1    1
     4     1     2   ar
     5     2     3    1
     6     2     4   ar
     7     4     5   ar
     8     5     6   ar
     9     6     7   ar
    10     7    13    1
    11    13    14   ar
    12    14    15   ar
    13    15    16   ar
    14    16    18    1
    15    18    19    1
    16    19    20    1
    17    20    21    1
    18    21    22    1
    19    22    23    1
    20    16    17   ar
    21     7     8   ar
    22     8     9   ar
    23     9    10   ar
    24    27    28    1
    25    28    29   ar
    26    29    30    1
    27    29    31   ar
    28    31    32   ar
    29    32    33   ar
    30    33    34    1
    31    33    35   ar
    32    35    36    1
    33    10     1   ar
    34    35    28   ar
    35    10     6   ar
    36    17    13   ar
    37    23    18    1
    38     3    11    1
    39     3    12    1
    40    21    24    1
@<TRIPOS>MOLECULE
*****
 36 40 0 0 0
SMALL
GASTEIGER

@<TRIPOS>ATOM
      1 C          63.6165   88.0967   13.2401 C.ar    1  UNL1        0.2040
      2 C          63.4857   89.5795   13.4249 C.ar    1  UNL1        0.1628
      3 N          64.2198   90.2640   14.5396 N.pl3   1  UNL1       -0.3401
      4 N          62.6208   90.3778   12.4950 N.ar    1  UNL1       -0.2263
      5 C          61.8867   89.6933   11.3804 C.ar    1  UNL1        0.1036
      6 C          62.0174   88.2105   11.1956 C.ar    1  UNL1        0.0600
      7 C          61.4189   87.2671   10.1947 C.ar    1  UNL1        0.0452
      8 C          61.9138   85.8857   10.5060 C.ar    1  UNL1        0.1798
      9 O          62.8183   85.9754   11.6993 O.2     1  UNL1       -0.4472
     10 C          62.8823   87.4122   12.1255 C.ar    1  UNL1        0.1834
     11 H          64.7875   89.7401   15.1499 H       1  UNL1        0.1438
     12 H          64.1340   91.2373   14.6609 H       1  UNL1        0.1438
     13 C          60.4887   87.6396    9.0785 C.ar    1  UNL1        0.0428
     14 C          59.3481   86.8103    8.5674 C.ar    1  UNL1        0.1217
     15 N          58.6902   87.5651    7.4504 N.ar    1  UNL1       -0.1677
     16 N          59.4243   88.8609    7.2713 N.ar    1  UNL1       -0.2512
     17 C          60.5358   88.9070    8.2775 C.ar    1  UNL1        0.0966
     18 C          59.1031   89.9240    6.2630 C.3     1  UNL1        0.1080
     19 C          57.6746   90.2899    5.9879 C.3     1  UNL1        0.0415
     20 C          57.3535   91.3529    4.9796 C.3     1  UNL1        0.0706
     21 N          58.4608   92.0502    4.2463 N.3     1  UNL1       -0.2974
     22 C          59.8892   91.6844    4.5214 C.3     1  UNL1        0.0706
     23 C          60.2104   90.6213    5.5297 C.3     1  UNL1        0.0415
     24 H          58.3674   93.0454    4.4493 H       1  UNL1        0.1232
     25 O          64.4814   87.2984   14.1700 O.3     1  UNL1       -0.4688
     26 C          63.3413   86.7692   16.4438 C.3     1  UNL1        0.0524
     27 C          63.8582   86.3115   15.1122 C.3     1  UNL1        0.1902
     28 C          63.7519   84.8668   14.7227 C.ar    1  UNL1        0.0405
     29 C          64.9592   84.1365   14.2137 C.ar    1  UNL1        0.0580
     30 CL         66.2728   84.8508   14.0942 Cl      1  UNL1       -0.0824
     31 C          64.8529   82.6918   13.8242 C.ar    1  UNL1        0.0135
     32 C          63.5393   81.9775   13.9437 C.ar    1  UNL1        0.0314
     33 C          62.3320   82.7079   14.4527 C.ar    1  UNL1        0.1505
     34 F          61.0185   81.9935   14.5722 F       1  UNL1       -0.2033
     35 C          62.4383   84.1525   14.8422 C.ar    1  UNL1        0.0852
     36 CL         61.2311   84.8828   15.3512 Cl      1  UNL1       -0.0801
@<TRIPOS>BOND
     1    26    27    1
     2    27    25    1
     3    25     1    1
     4     1     2   ar
     5     2     3    1
     6     2     4   ar
     7     4     5   ar
     8     5     6   ar
     9     6     7   ar
    10     7    13    1
    11    13    14   ar
    12    14    15   ar
    13    15    16   ar
    14    16    18    1
    15    18    19    1
    16    19    20    1
    17    20    21    1
    18    21    22    1
    19    22    23    1
    20    16    17   ar
    21     7     8   ar
    22     8     9   ar
    23     9    10   ar
    24    27    28    1
    25    28    29   ar
    26    29    30    1
    27    29    31   ar
    28    31    32   ar
    29    32    33   ar
    30    33    34    1
    31    33    35   ar
    32    35    36    1
    33    10     1   ar
    34    35    28   ar
    35    10     6   ar
    36    17    13   ar
    37    23    18    1
    38     3    11    1
    39     3    12    1
    40    21    24    1
