@<TRIPOS>MOLECULE
*****
 30 33 0 0 0
SMALL
GASTEIGER

@<TRIPOS>ATOM
      1 C          64.0126   87.8544   14.4172 C.ar    1  UNL1        0.0814
      2 N          64.3241   86.6562   15.2641 N.ar    1  UNL1       -0.2438
      3 C          64.0823   85.2760   14.7286 C.ar    1  UNL1        0.0988
      4 C          63.5291   85.0941   13.3463 C.ar    1  UNL1        0.0207
      5 C          63.2177   86.2924   12.4994 C.ar    1  UNL1        0.0032
      6 C          63.4594   87.6725   13.0349 C.ar    1  UNL1        0.0206
      7 C          63.1479   88.8708   12.1880 C.ar    1  UNL1        0.0363
      8 C          64.0825   90.0440   12.1759 C.ar    1  UNL1        0.0145
      9 C          63.7710   91.2422   11.3290 C.ar    1  UNL1        0.0579
     10 CL         64.7056   92.4155   11.3169 Cl      1  UNL1       -0.0822
     11 C          62.5249   91.2673   10.4943 C.ar    1  UNL1        0.0145
     12 C          61.5904   90.0941   10.5064 C.ar    1  UNL1        0.0378
     13 C          61.9019   88.8959   11.3533 C.ar    1  UNL1        0.1391
     14 O          60.9673   87.7226   11.3654 O.3     1  UNL1       -0.4706
     15 C          60.2492   87.3227   10.1107 C.3     1  UNL1        0.2320
     16 C          60.9490   86.4877    9.0797 C.ar    1  UNL1        0.0212
     17 C          62.3752   86.0741    9.2915 C.ar    1  UNL1       -0.0007
     18 C          63.0750   85.2391    8.2604 C.ar    1  UNL1       -0.0002
     19 C          62.3485   84.8176    7.0176 C.ar    1  UNL1       -0.0000
     20 C          60.9223   85.2312    6.8058 C.ar    1  UNL1       -0.0002
     21 C          60.2225   86.0662    7.8368 C.ar    1  UNL1       -0.0007
     22 C          65.7081   91.3854   15.0556 C.ar    1  UNL1        0.0140
     23 C          64.7378   91.9949   16.0235 C.ar    1  UNL1        0.0011
     24 C          63.5258   91.2243   16.4560 C.ar    1  UNL1        0.0001
     25 C          63.2840   89.8442   15.9206 C.ar    1  UNL1        0.0015
     26 C          64.2543   89.2347   14.9527 C.ar    1  UNL1        0.0177
     27 C          65.4664   90.0053   14.5202 C.ar    1  UNL1        0.0026
     28 O          67.4952   91.9432   13.2541 O.co2   1  UNL1       -0.5446
     29 C          66.9202   92.1560   14.6230 C.2     1  UNL1        0.0729
     30 O          67.5572   93.1395   15.5594 O.co2   1  UNL1       -0.5446
@<TRIPOS>UNITY_ATOM_ATTR
28 1
charge -1
@<TRIPOS>BOND
     1    28    29   ar
     2    29    30   ar
     3    29    22    1
     4    22    23   ar
     5    23    24   ar
     6    24    25   ar
     7    25    26   ar
     8    26     1    1
     9     1     2   ar
    10     2     3   ar
    11     3     4   ar
    12     4     5   ar
    13     5     6   ar
    14     6     7    1
    15     7     8   ar
    16     8     9   ar
    17     9    10    1
    18     9    11   ar
    19    11    12   ar
    20    12    13   ar
    21    13    14    1
    22    14    15    1
    23    15    16    1
    24    16    17   ar
    25    17    18   ar
    26    18    19   ar
    27    19    20   ar
    28    20    21   ar
    29    26    27   ar
    30    27    22   ar
    31     6     1   ar
    32    13     7   ar
    33    21    16   ar
@<TRIPOS>MOLECULE
*****
 30 33 0 0 0
SMALL
GASTEIGER

@<TRIPOS>ATOM
      1 C          61.9509   85.6956   10.2696 C.ar    1  UNL1        0.0814
      2 N          61.1059   85.7380    9.0309 N.ar    1  UNL1       -0.2438
      3 C          60.3962   87.0035    8.6501 C.ar    1  UNL1        0.0988
      4 C          60.5314   88.2265    9.5080 C.ar    1  UNL1        0.0207
      5 C          61.3764   88.1841   10.7467 C.ar    1  UNL1        0.0032
      6 C          62.0861   86.9186   11.1275 C.ar    1  UNL1        0.0206
      7 C          62.9311   86.8762   12.3662 C.ar    1  UNL1        0.0363
      8 C          63.2401   85.5613   13.0185 C.ar    1  UNL1        0.0145
      9 C          64.0850   85.5189   14.2571 C.ar    1  UNL1        0.0579
     10 CL         64.3941   84.2040   14.9095 Cl      1  UNL1       -0.0822
     11 C          64.6209   86.7913   14.8434 C.ar    1  UNL1        0.0145
     12 C          64.3119   88.1062   14.1911 C.ar    1  UNL1        0.0378
     13 C          63.4670   88.1486   12.9524 C.ar    1  UNL1        0.1391
     14 O          63.1579   89.4635   12.3000 O.3     1  UNL1       -0.4706
     15 C          63.4979   90.7461   12.9996 C.3     1  UNL1        0.2320
     16 C          64.5647   91.6429   12.4449 C.ar    1  UNL1        0.0212
     17 C          64.5335   92.0402   10.9989 C.ar    1  UNL1       -0.0007
     18 C          65.6004   92.9370   10.4443 C.ar    1  UNL1       -0.0002
     19 C          66.6984   93.4365   11.3357 C.ar    1  UNL1       -0.0000
     20 C          66.7296   93.0392   12.7818 C.ar    1  UNL1       -0.0002
     21 C          65.6628   92.1424   13.3364 C.ar    1  UNL1       -0.0007
     22 C          62.8177   82.2935   12.1200 C.ar    1  UNL1        0.0140
     23 C          64.0799   81.8993   11.4120 C.ar    1  UNL1        0.0011
     24 C          64.6325   82.7706   10.3232 C.ar    1  UNL1        0.0001
     25 C          63.9228   84.0360    9.9424 C.ar    1  UNL1        0.0015
     26 C          62.6606   84.4302   10.6504 C.ar    1  UNL1        0.0177
     27 C          62.1080   83.5589   11.7392 C.ar    1  UNL1        0.0026
     28 O          61.7398   82.0407   14.4704 O.co2   1  UNL1       -0.5446
     29 C          62.2651   81.4222   13.2089 C.2     1  UNL1        0.0729
     30 O          62.2378   79.9325   13.0362 O.co2   1  UNL1       -0.5446
@<TRIPOS>UNITY_ATOM_ATTR
28 1
charge -1
@<TRIPOS>BOND
     1    28    29   ar
     2    29    30   ar
     3    29    22    1
     4    22    23   ar
     5    23    24   ar
     6    24    25   ar
     7    25    26   ar
     8    26     1    1
     9     1     2   ar
    10     2     3   ar
    11     3     4   ar
    12     4     5   ar
    13     5     6   ar
    14     6     7    1
    15     7     8   ar
    16     8     9   ar
    17     9    10    1
    18     9    11   ar
    19    11    12   ar
    20    12    13   ar
    21    13    14    1
    22    14    15    1
    23    15    16    1
    24    16    17   ar
    25    17    18   ar
    26    18    19   ar
    27    19    20   ar
    28    20    21   ar
    29    26    27   ar
    30    27    22   ar
    31     6     1   ar
    32    13     7   ar
    33    21    16   ar
@<TRIPOS>MOLECULE
*****
 30 33 0 0 0
SMALL
GASTEIGER

@<TRIPOS>ATOM
      1 C          63.4526   90.7511   11.5978 C.ar    1  UNL1        0.0814
      2 N          63.7439   91.7229   10.4930 N.ar    1  UNL1       -0.2438
      3 C          64.9589   92.5996   10.5661 C.ar    1  UNL1        0.0988
      4 C          65.8826   92.5044   11.7442 C.ar    1  UNL1        0.0207
      5 C          65.5913   91.5325   12.8490 C.ar    1  UNL1        0.0032
      6 C          64.3763   90.6559   12.7758 C.ar    1  UNL1        0.0206
      7 C          64.0850   89.6840   13.8807 C.ar    1  UNL1        0.0363
      8 C          64.1526   88.2086   13.6189 C.ar    1  UNL1        0.0145
      9 C          63.8613   87.2368   14.7237 C.ar    1  UNL1        0.0579
     10 CL         63.9289   85.7613   14.4620 Cl      1  UNL1       -0.0822
     11 C          63.5024   87.7404   16.0903 C.ar    1  UNL1        0.0145
     12 C          63.4348   89.2158   16.3521 C.ar    1  UNL1        0.0378
     13 C          63.7261   90.1876   15.2473 C.ar    1  UNL1        0.1391
     14 O          63.6584   91.6631   15.5090 O.3     1  UNL1       -0.4706
     15 C          64.5983   92.2940   16.4931 C.3     1  UNL1        0.2320
     16 C          66.0138   92.5900   16.0947 C.ar    1  UNL1        0.0212
     17 C          66.2970   93.6231   15.0447 C.ar    1  UNL1       -0.0007
     18 C          67.7126   93.9191   14.6463 C.ar    1  UNL1       -0.0002
     19 C          68.8448   93.1820   15.2979 C.ar    1  UNL1       -0.0000
     20 C          68.5616   92.1489   16.3480 C.ar    1  UNL1       -0.0002
     21 C          67.1461   91.8529   16.7464 C.ar    1  UNL1       -0.0007
     22 C          61.1162   87.6369   10.8275 C.ar    1  UNL1        0.0140
     23 C          59.8078   88.1211   11.3783 C.ar    1  UNL1        0.0011
     24 C          59.7142   89.4820   12.0023 C.ar    1  UNL1        0.0001
     25 C          60.9291   90.3586   12.0754 C.ar    1  UNL1        0.0015
     26 C          62.2376   89.8744   11.5246 C.ar    1  UNL1        0.0177
     27 C          62.3312   88.5136   10.9007 C.ar    1  UNL1        0.0026
     28 O          60.5368   86.0051    8.8907 O.co2   1  UNL1       -0.5446
     29 C          61.2098   86.2761   10.2035 C.2     1  UNL1        0.0729
     30 O          61.9763   85.1862   10.8924 O.co2   1  UNL1       -0.5446
@<TRIPOS>UNITY_ATOM_ATTR
28 1
charge -1
@<TRIPOS>BOND
     1    28    29   ar
     2    29    30   ar
     3    29    22    1
     4    22    23   ar
     5    23    24   ar
     6    24    25   ar
     7    25    26   ar
     8    26     1    1
     9     1     2   ar
    10     2     3   ar
    11     3     4   ar
    12     4     5   ar
    13     5     6   ar
    14     6     7    1
    15     7     8   ar
    16     8     9   ar
    17     9    10    1
    18     9    11   ar
    19    11    12   ar
    20    12    13   ar
    21    13    14    1
    22    14    15    1
    23    15    16    1
    24    16    17   ar
    25    17    18   ar
    26    18    19   ar
    27    19    20   ar
    28    20    21   ar
    29    26    27   ar
    30    27    22   ar
    31     6     1   ar
    32    13     7   ar
    33    21    16   ar
@<TRIPOS>MOLECULE
*****
 30 33 0 0 0
SMALL
GASTEIGER

@<TRIPOS>ATOM
      1 C          64.5004   91.7549   11.3883 C.ar    1  UNL1        0.0814
      2 N          63.5853   91.2894   10.2948 N.ar    1  UNL1       -0.2438
      3 C          62.7489   90.0595   10.4895 C.ar    1  UNL1        0.0988
      4 C          62.8277   89.2951   11.7778 C.ar    1  UNL1        0.0207
      5 C          63.7429   89.7607   12.8713 C.ar    1  UNL1        0.0032
      6 C          64.5792   90.9905   12.6766 C.ar    1  UNL1        0.0206
      7 C          65.4944   91.4561   13.7701 C.ar    1  UNL1        0.0363
      8 C          66.9229   91.7928   13.4601 C.ar    1  UNL1        0.0145
      9 C          67.8380   92.2583   14.5536 C.ar    1  UNL1        0.0579
     10 CL         69.2665   92.5951   14.2436 Cl      1  UNL1       -0.0822
     11 C          67.3247   92.3872   15.9571 C.ar    1  UNL1        0.0145
     12 C          65.8962   92.0505   16.2671 C.ar    1  UNL1        0.0378
     13 C          64.9811   91.5849   15.1736 C.ar    1  UNL1        0.1391
     14 O          63.5526   91.2482   15.4836 O.3     1  UNL1       -0.4706
     15 C          63.2312   90.2962   16.5974 C.3     1  UNL1        0.2320
     16 C          63.4070   88.8202   16.3966 C.ar    1  UNL1        0.0212
     17 C          64.1609   88.3100   15.2044 C.ar    1  UNL1       -0.0007
     18 C          64.3367   86.8339   15.0036 C.ar    1  UNL1       -0.0002
     19 C          63.7586   85.8680   15.9950 C.ar    1  UNL1       -0.0000
     20 C          63.0047   86.3782   17.1872 C.ar    1  UNL1       -0.0002
     21 C          62.8289   87.8542   17.3880 C.ar    1  UNL1       -0.0007
     22 C          66.8962   94.4324    9.7028 C.ar    1  UNL1        0.0140
     23 C          67.0096   95.4444   10.8041 C.ar    1  UNL1        0.0011
     24 C          66.2866   95.2266   12.1002 C.ar    1  UNL1        0.0001
     25 C          65.4502   93.9968   12.2950 C.ar    1  UNL1        0.0015
     26 C          65.3369   92.9848   11.1936 C.ar    1  UNL1        0.0177
     27 C          66.0598   93.2026    9.8975 C.ar    1  UNL1        0.0026
     28 O          67.6397   96.0125    7.7791 O.co2   1  UNL1       -0.5446
     29 C          67.6192   94.6503    8.4067 C.2     1  UNL1        0.0729
     30 O          68.3218   93.5059    7.7383 O.co2   1  UNL1       -0.5446
@<TRIPOS>UNITY_ATOM_ATTR
28 1
charge -1
@<TRIPOS>BOND
     1    28    29   ar
     2    29    30   ar
     3    29    22    1
     4    22    23   ar
     5    23    24   ar
     6    24    25   ar
     7    25    26   ar
     8    26     1    1
     9     1     2   ar
    10     2     3   ar
    11     3     4   ar
    12     4     5   ar
    13     5     6   ar
    14     6     7    1
    15     7     8   ar
    16     8     9   ar
    17     9    10    1
    18     9    11   ar
    19    11    12   ar
    20    12    13   ar
    21    13    14    1
    22    14    15    1
    23    15    16    1
    24    16    17   ar
    25    17    18   ar
    26    18    19   ar
    27    19    20   ar
    28    20    21   ar
    29    26    27   ar
    30    27    22   ar
    31     6     1   ar
    32    13     7   ar
    33    21    16   ar
@<TRIPOS>MOLECULE
*****
 30 33 0 0 0
SMALL
GASTEIGER

@<TRIPOS>ATOM
      1 C          60.9378   87.3376    9.4484 C.ar    1  UNL1        0.0814
      2 N          60.3506   86.8811    8.1458 N.ar    1  UNL1       -0.2438
      3 C          61.0369   85.8128    7.3471 C.ar    1  UNL1        0.0988
      4 C          62.3103   85.2010    7.8511 C.ar    1  UNL1        0.0207
      5 C          62.8975   85.6575    9.1538 C.ar    1  UNL1        0.0032
      6 C          62.2112   86.7258    9.9524 C.ar    1  UNL1        0.0206
      7 C          62.7984   87.1823   11.2551 C.ar    1  UNL1        0.0363
      8 C          63.0228   88.6441   11.5053 C.ar    1  UNL1        0.0145
      9 C          63.6099   89.1005   12.8079 C.ar    1  UNL1        0.0579
     10 CL         63.8344   90.5624   13.0581 Cl      1  UNL1       -0.0822
     11 C          63.9727   88.0951   13.8603 C.ar    1  UNL1        0.0145
     12 C          63.7482   86.6333   13.6101 C.ar    1  UNL1        0.0378
     13 C          63.1611   86.1769   12.3075 C.ar    1  UNL1        0.1391
     14 O          62.9366   84.7150   12.0572 O.3     1  UNL1       -0.4706
     15 C          63.5518   83.6949   12.9688 C.3     1  UNL1        0.2320
     16 C          62.8965   82.3577   13.1489 C.ar    1  UNL1        0.0212
     17 C          63.3254   81.1929   12.3068 C.ar    1  UNL1       -0.0007
     18 C          62.6700   79.8556   12.4868 C.ar    1  UNL1       -0.0002
     19 C          61.5859   79.6833   13.5090 C.ar    1  UNL1       -0.0000
     20 C          61.1570   80.8481   14.3511 C.ar    1  UNL1       -0.0002
     21 C          61.8123   82.1853   14.1711 C.ar    1  UNL1       -0.0007
     22 C          58.7922   89.1091   12.2783 C.ar    1  UNL1        0.0140
     23 C          58.8790   90.5423   11.8444 C.ar    1  UNL1        0.0011
     24 C          59.6520   90.9073   10.6118 C.ar    1  UNL1        0.0001
     25 C          60.3382   89.8391    9.8132 C.ar    1  UNL1        0.0015
     26 C          60.2515   88.4059   10.2471 C.ar    1  UNL1        0.0177
     27 C          59.4785   88.0409   11.4796 C.ar    1  UNL1        0.0026
     28 O          56.5790   88.3398   13.4007 O.co2   1  UNL1       -0.5446
     29 C          58.0192   88.7441   13.5109 C.2     1  UNL1        0.0729
     30 O          58.6865   88.7834   14.8537 O.co2   1  UNL1       -0.5446
@<TRIPOS>UNITY_ATOM_ATTR
28 1
charge -1
@<TRIPOS>BOND
     1    28    29   ar
     2    29    30   ar
     3    29    22    1
     4    22    23   ar
     5    23    24   ar
     6    24    25   ar
     7    25    26   ar
     8    26     1    1
     9     1     2   ar
    10     2     3   ar
    11     3     4   ar
    12     4     5   ar
    13     5     6   ar
    14     6     7    1
    15     7     8   ar
    16     8     9   ar
    17     9    10    1
    18     9    11   ar
    19    11    12   ar
    20    12    13   ar
    21    13    14    1
    22    14    15    1
    23    15    16    1
    24    16    17   ar
    25    17    18   ar
    26    18    19   ar
    27    19    20   ar
    28    20    21   ar
    29    26    27   ar
    30    27    22   ar
    31     6     1   ar
    32    13     7   ar
    33    21    16   ar
@<TRIPOS>MOLECULE
*****
 30 33 0 0 0
SMALL
GASTEIGER

@<TRIPOS>ATOM
      1 C          63.1954   87.0732   12.9851 C.ar    1  UNL1        0.0814
      2 N          63.7198   86.9848   14.3876 N.ar    1  UNL1       -0.2438
      3 C          63.6678   85.6807   15.1270 C.ar    1  UNL1        0.0988
      4 C          63.0913   84.4650   14.4639 C.ar    1  UNL1        0.0207
      5 C          62.5668   84.5535   13.0613 C.ar    1  UNL1        0.0032
      6 C          62.6189   85.8575   12.3219 C.ar    1  UNL1        0.0206
      7 C          62.0944   85.9460   10.9193 C.ar    1  UNL1        0.0363
      8 C          60.8317   86.7048   10.6373 C.ar    1  UNL1        0.0145
      9 C          60.3073   86.7933    9.2347 C.ar    1  UNL1        0.0579
     10 CL         59.0445   87.5522    8.9526 Cl      1  UNL1       -0.0822
     11 C          61.0456   86.1228    8.1143 C.ar    1  UNL1        0.0145
     12 C          62.3083   85.3639    8.3964 C.ar    1  UNL1        0.0378
     13 C          62.8327   85.2755    9.7989 C.ar    1  UNL1        0.1391
     14 O          64.0954   84.5165   10.0811 O.3     1  UNL1       -0.4706
     15 C          64.1078   83.0196    9.9864 C.3     1  UNL1        0.2320
     16 C          63.8625   82.1886   11.2109 C.ar    1  UNL1        0.0212
     17 C          64.8015   82.2763   12.3773 C.ar    1  UNL1       -0.0007
     18 C          64.5562   81.4453   13.6018 C.ar    1  UNL1       -0.0002
     19 C          63.3718   80.5267   13.6598 C.ar    1  UNL1       -0.0000
     20 C          62.4328   80.4390   12.4934 C.ar    1  UNL1       -0.0002
     21 C          62.6781   81.2699   11.2690 C.ar    1  UNL1       -0.0007
     22 C          64.0208   90.8535   12.1028 C.ar    1  UNL1        0.0140
     23 C          63.3515   90.9854   10.7670 C.ar    1  UNL1        0.0011
     24 C          62.6301   89.8133   10.1705 C.ar    1  UNL1        0.0001
     25 C          62.5781   88.5092   10.9098 C.ar    1  UNL1        0.0015
     26 C          63.2474   88.3773   12.2457 C.ar    1  UNL1        0.0177
     27 C          63.9687   89.5494   12.8422 C.ar    1  UNL1        0.0026
     28 O          64.8789   92.1434   14.1884 O.co2   1  UNL1       -0.5446
     29 C          64.7421   92.0256   12.6994 C.2     1  UNL1        0.0729
     30 O          65.3267   93.0798   11.8068 O.co2   1  UNL1       -0.5446
@<TRIPOS>UNITY_ATOM_ATTR
28 1
charge -1
@<TRIPOS>BOND
     1    28    29   ar
     2    29    30   ar
     3    29    22    1
     4    22    23   ar
     5    23    24   ar
     6    24    25   ar
     7    25    26   ar
     8    26     1    1
     9     1     2   ar
    10     2     3   ar
    11     3     4   ar
    12     4     5   ar
    13     5     6   ar
    14     6     7    1
    15     7     8   ar
    16     8     9   ar
    17     9    10    1
    18     9    11   ar
    19    11    12   ar
    20    12    13   ar
    21    13    14    1
    22    14    15    1
    23    15    16    1
    24    16    17   ar
    25    17    18   ar
    26    18    19   ar
    27    19    20   ar
    28    20    21   ar
    29    26    27   ar
    30    27    22   ar
    31     6     1   ar
    32    13     7   ar
    33    21    16   ar
@<TRIPOS>MOLECULE
*****
 30 33 0 0 0
SMALL
GASTEIGER

@<TRIPOS>ATOM
      1 C          64.2068   87.7423   14.7114 C.ar    1  UNL1        0.0814
      2 N          64.6711   86.6708   15.6529 N.ar    1  UNL1       -0.2438
      3 C          64.5978   85.2295   15.2436 C.ar    1  UNL1        0.0988
      4 C          64.0603   84.8598   13.8929 C.ar    1  UNL1        0.0207
      5 C          63.5960   85.9314   12.9514 C.ar    1  UNL1        0.0032
      6 C          63.6693   87.3726   13.3607 C.ar    1  UNL1        0.0206
      7 C          63.2051   88.4442   12.4193 C.ar    1  UNL1        0.0363
      8 C          63.9393   89.7503   12.3489 C.ar    1  UNL1        0.0145
      9 C          63.4751   90.8218   11.4075 C.ar    1  UNL1        0.0579
     10 CL         64.2093   92.1280   11.3371 Cl      1  UNL1       -0.0822
     11 C          62.2766   90.5873   10.5365 C.ar    1  UNL1        0.0145
     12 C          61.5424   89.2812   10.6069 C.ar    1  UNL1        0.0378
     13 C          62.0066   88.2097   11.5483 C.ar    1  UNL1        0.1391
     14 O          61.2724   86.9035   11.6187 O.3     1  UNL1       -0.4706
     15 C          61.3033   85.9619   10.4515 C.3     1  UNL1        0.2320
     16 C          62.2097   84.7670   10.4756 C.ar    1  UNL1        0.0212
     17 C          61.9924   83.6811   11.4874 C.ar    1  UNL1       -0.0007
     18 C          62.8989   82.4861   11.5115 C.ar    1  UNL1       -0.0002
     19 C          64.0225   82.3771   10.5238 C.ar    1  UNL1       -0.0000
     20 C          64.2398   83.4630    9.5121 C.ar    1  UNL1       -0.0002
     21 C          63.3334   84.6579    9.4879 C.ar    1  UNL1       -0.0007
     22 C          65.4047   91.5188   14.9421 C.ar    1  UNL1        0.0140
     23 C          64.4267   92.0660   15.9392 C.ar    1  UNL1        0.0011
     24 C          63.3755   91.1719   16.5270 C.ar    1  UNL1        0.0001
     25 C          63.3022   89.7307   16.1178 C.ar    1  UNL1        0.0015
     26 C          64.2801   89.1836   15.1207 C.ar    1  UNL1        0.0177
     27 C          65.3314   90.0776   14.5329 C.ar    1  UNL1        0.0026
     28 O          66.2436   93.8973   14.3186 O.co2   1  UNL1       -0.5446
     29 C          66.4559   92.4129   14.3542 C.2     1  UNL1        0.0729
     30 O          67.7194   91.8225   13.8020 O.co2   1  UNL1       -0.5446
@<TRIPOS>UNITY_ATOM_ATTR
28 1
charge -1
@<TRIPOS>BOND
     1    28    29   ar
     2    29    30   ar
     3    29    22    1
     4    22    23   ar
     5    23    24   ar
     6    24    25   ar
     7    25    26   ar
     8    26     1    1
     9     1     2   ar
    10     2     3   ar
    11     3     4   ar
    12     4     5   ar
    13     5     6   ar
    14     6     7    1
    15     7     8   ar
    16     8     9   ar
    17     9    10    1
    18     9    11   ar
    19    11    12   ar
    20    12    13   ar
    21    13    14    1
    22    14    15    1
    23    15    16    1
    24    16    17   ar
    25    17    18   ar
    26    18    19   ar
    27    19    20   ar
    28    20    21   ar
    29    26    27   ar
    30    27    22   ar
    31     6     1   ar
    32    13     7   ar
    33    21    16   ar
@<TRIPOS>MOLECULE
*****
 30 33 0 0 0
SMALL
GASTEIGER

@<TRIPOS>ATOM
      1 C          60.9156   87.2835    9.4293 C.ar    1  UNL1        0.0814
      2 N          60.3646   86.9441    8.0761 N.ar    1  UNL1       -0.2438
      3 C          61.0176   85.8788    7.2461 C.ar    1  UNL1        0.0988
      4 C          62.2215   85.1529    7.7693 C.ar    1  UNL1        0.0207
      5 C          62.7724   85.4924    9.1226 C.ar    1  UNL1        0.0032
      6 C          62.1194   86.5576    9.9526 C.ar    1  UNL1        0.0206
      7 C          62.6703   86.8971   11.3059 C.ar    1  UNL1        0.0363
      8 C          62.7776   85.8352   12.3599 C.ar    1  UNL1        0.0145
      9 C          63.3285   86.1747   13.7131 C.ar    1  UNL1        0.0579
     10 CL         63.4358   85.1128   14.7672 Cl      1  UNL1       -0.0822
     11 C          63.7721   87.5760   14.0123 C.ar    1  UNL1        0.0145
     12 C          63.6649   88.6378   12.9583 C.ar    1  UNL1        0.0378
     13 C          63.1140   88.2984   11.6051 C.ar    1  UNL1        0.1391
     14 O          63.0067   89.3602   10.5510 O.3     1  UNL1       -0.4706
     15 C          62.9211   90.8044   10.9473 C.3     1  UNL1        0.2320
     16 C          64.1549   91.5362   11.3857 C.ar    1  UNL1        0.0212
     17 C          64.5223   91.5834   12.8392 C.ar    1  UNL1       -0.0007
     18 C          65.7561   92.3153   13.2775 C.ar    1  UNL1       -0.0002
     19 C          66.6225   92.9999   12.2623 C.ar    1  UNL1       -0.0000
     20 C          66.2551   92.9527   10.8088 C.ar    1  UNL1       -0.0002
     21 C          65.0213   92.2209   10.3705 C.ar    1  UNL1       -0.0007
     22 C          58.8851   89.0441   12.3495 C.ar    1  UNL1        0.0140
     23 C          58.9568   90.4792   11.9193 C.ar    1  UNL1        0.0011
     24 C          59.6814   90.8492   10.6592 C.ar    1  UNL1        0.0001
     25 C          60.3343   89.7840    9.8291 C.ar    1  UNL1        0.0015
     26 C          60.2626   88.3488   10.2593 C.ar    1  UNL1        0.0177
     27 C          59.5380   87.9789   11.5195 C.ar    1  UNL1        0.0026
     28 O          56.7594   88.1429   13.5409 O.co2   1  UNL1       -0.5446
     29 C          58.1605   88.6741   13.6097 C.2     1  UNL1        0.0729
     30 O          58.8369   88.8354   14.9387 O.co2   1  UNL1       -0.5446
@<TRIPOS>UNITY_ATOM_ATTR
28 1
charge -1
@<TRIPOS>BOND
     1    28    29   ar
     2    29    30   ar
     3    29    22    1
     4    22    23   ar
     5    23    24   ar
     6    24    25   ar
     7    25    26   ar
     8    26     1    1
     9     1     2   ar
    10     2     3   ar
    11     3     4   ar
    12     4     5   ar
    13     5     6   ar
    14     6     7    1
    15     7     8   ar
    16     8     9   ar
    17     9    10    1
    18     9    11   ar
    19    11    12   ar
    20    12    13   ar
    21    13    14    1
    22    14    15    1
    23    15    16    1
    24    16    17   ar
    25    17    18   ar
    26    18    19   ar
    27    19    20   ar
    28    20    21   ar
    29    26    27   ar
    30    27    22   ar
    31     6     1   ar
    32    13     7   ar
    33    21    16   ar
