@<TRIPOS>MOLECULE
*****
 54 58 0 0 0
SMALL
GASTEIGER

@<TRIPOS>ATOM
      1 C          61.0597   89.0264    9.4239 C.3     1  UNL1        0.0760
      2 C          59.7693   89.3624    7.1942 C.2     1  UNL1        0.2429
      3 O          59.5002   87.8882    7.1278 O.2     1  UNL1       -0.2732
      4 N          60.5491   89.9315    8.3423 N.am    1  UNL1       -0.3042
      5 H          60.7257   90.8991    8.3858 H       1  UNL1        0.1494
      6 CA         59.2586   90.2675    6.1125 C.3     1  UNL1        0.1793
      7 N          60.7546   92.5838    3.2582 N.am    1  UNL1       -0.2601
      8 C          59.8061   92.0202    4.2744 C.2     1  UNL1        0.3046
      9 O          58.4566   92.6455    4.4688 O.2     1  UNL1       -0.2526
     10 N          60.2071   90.8311    5.0962 N.am    1  UNL1       -0.2805
     11 H          61.0928   90.4206    4.9687 H       1  UNL1        0.1514
     12 C          62.1040   91.9584    3.0639 C.3     1  UNL1        0.0773
     13 C          63.0511   90.8169    3.2872 C.3     1  UNL1        0.0216
     14 C          63.4943   92.0168    2.5038 C.3     1  UNL1        0.0216
     15 C          60.3536   93.7728    2.4364 C.3     1  UNL1        0.1412
     16 C          58.9759   93.1800   -1.1436 C.ar    1  UNL1        0.0875
     17 N          58.7878   93.2103    0.3443 N.ar    1  UNL1       -0.2453
     18 C          60.0904   93.6154    0.9681 C.ar    1  UNL1        0.0858
     19 C          61.0837   93.8354   -0.1342 C.ar    1  UNL1        0.0530
     20 S          60.3949   93.5663   -1.4393 S.2     1  UNL1       -0.0705
     21 C          56.5489   92.4458   -1.7093 C.3     1  UNL1        0.0069
     22 C          57.9291   92.8255   -2.1576 C.3     1  UNL1        0.0465
     23 C          58.2623   92.8508   -3.6198 C.3     1  UNL1        0.0069
     24 C          57.7995   90.6089    6.0470 C.3     1  UNL1        0.1661
     25 O          57.0244   90.3504    4.7890 O.3     1  UNL1       -0.3798
     26 H          57.3572   90.9235    4.0807 H       1  UNL1        0.2105
     27 C          62.1166   89.5118   10.3712 C.3     1  UNL1        0.0216
     28 C          61.8556   89.5151   11.8483 C.3     1  UNL1        0.0217
     29 C          63.0026   89.5859   12.8125 C.3     1  UNL1        0.0792
     30 N          63.7741   88.3452   13.1524 N.am    1  UNL1       -0.2720
     31 C          63.9529   87.9426   14.5863 C.2     1  UNL1        0.4019
     32 O          63.3601   88.7805   15.6801 O.2     1  UNL1       -0.2264
     33 H          64.1632   87.7953   12.4345 H       1  UNL1        0.1527
     34 O          64.7245   86.7020   14.9263 O.3     1  UNL1       -0.4291
     35 C          64.0577   85.5852   15.6733 C.3     1  UNL1        0.2447
     36 C          63.7447   84.2962   14.9729 C.ar    1  UNL1        0.0714
     37 C          64.6214   83.5997   13.9747 C.ar    1  UNL1        0.1053
     38 N          63.9186   82.3504   13.5326 N.ar    1  UNL1       -0.2350
     39 C          62.6077   82.2748   14.2576 C.ar    1  UNL1        0.1343
     40 S          62.5002   83.4773   15.1477 S.2     1  UNL1       -0.0652
     41 C          63.3779   90.8971   13.4366 C.3     1  UNL1        0.0460
     42 C          64.8004   91.3708   13.3885 C.ar    1  UNL1       -0.0205
     43 C          65.3146   92.0782   12.1698 C.ar    1  UNL1       -0.0042
     44 C          66.7370   92.5518   12.1218 C.ar    1  UNL1       -0.0003
     45 C          67.6452   92.3181   13.2925 C.ar    1  UNL1       -0.0000
     46 C          67.1311   91.6107   14.5111 C.ar    1  UNL1       -0.0003
     47 C          65.7087   91.1371   14.5592 C.ar    1  UNL1       -0.0042
     48 C          60.5135   87.6358    9.5583 C.3     1  UNL1        0.0459
     49 C          61.4483   86.4774    9.7428 C.ar    1  UNL1       -0.0205
     50 C          62.2541   85.9718    8.5830 C.ar    1  UNL1       -0.0042
     51 C          63.1889   84.8134    8.7675 C.ar    1  UNL1       -0.0003
     52 C          63.3181   84.1605   10.1118 C.ar    1  UNL1       -0.0000
     53 C          62.5123   84.6661   11.2716 C.ar    1  UNL1       -0.0003
     54 C          61.5774   85.8245   11.0872 C.ar    1  UNL1       -0.0042
@<TRIPOS>BOND
     1    21    22    1
     2    22    23    1
     3    22    16    1
     4    16    17   ar
     5    17    18   ar
     6    18    15    1
     7    15     7    1
     8     7     8   am
     9     8     9    2
    10     8    10   am
    11    10     6    1
    12     6    24    1
    13    24    25    1
    14     6     2    1
    15     2     3    2
    16     2     4   am
    17     4     1    1
    18     1    27    1
    19    27    28    1
    20    29    28    1
    21    29    41    1
    22    41    42    1
    23    42    43   ar
    24    43    44   ar
    25    44    45   ar
    26    45    46   ar
    27    46    47   ar
    28    29    30    1
    29    30    31   am
    30    31    32    2
    31    31    34    1
    32    34    35    1
    33    35    36    1
    34    36    37   ar
    35    37    38   ar
    36    38    39   ar
    37    39    40   ar
    38     1    48    1
    39    48    49    1
    40    49    50   ar
    41    50    51   ar
    42    51    52   ar
    43    52    53   ar
    44    53    54   ar
    45     7    12    1
    46    12    13    1
    47    13    14    1
    48    18    19   ar
    49    19    20   ar
    50    20    16   ar
    51    47    42   ar
    52    40    36   ar
    53    54    49   ar
    54    14    12    1
    55    10    11    1
    56    25    26    1
    57     4     5    1
    58    30    33    1
@<TRIPOS>MOLECULE
*****
 54 58 0 0 0
SMALL
GASTEIGER

@<TRIPOS>ATOM
      1 C          63.6785   84.7212   12.0326 C.3     1  UNL1        0.0760
      2 C          64.3336   86.0107   14.1909 C.2     1  UNL1        0.2429
      3 O          65.5577   85.1551   14.3305 O.2     1  UNL1       -0.2732
      4 N          63.3939   85.7937   13.0419 N.am    1  UNL1       -0.3042
      5 H          62.5905   86.3553   12.9502 H       1  UNL1        0.1494
      6 CA         64.0490   87.0832   15.2002 C.3     1  UNL1        0.1793
      7 N          64.7116   90.6590   13.6111 N.am    1  UNL1       -0.2601
      8 C          64.1659   89.2763   13.8121 C.2     1  UNL1        0.3046
      9 O          63.1914   88.7039   12.8258 O.2     1  UNL1       -0.2526
     10 N          64.5948   88.4660   14.9993 N.am    1  UNL1       -0.2805
     11 H          65.2344   88.8416   15.6466 H       1  UNL1        0.1514
     12 C          65.6861   91.2313   14.5974 C.3     1  UNL1        0.0773
     13 C          67.0877   91.3526   15.1179 C.3     1  UNL1        0.0216
     14 C          65.9724   92.1013   15.7853 C.3     1  UNL1        0.0216
     15 C          64.2828   91.4693   12.4240 C.3     1  UNL1        0.1412
     16 C          66.8272   93.3792   10.2004 C.ar    1  UNL1        0.0875
     17 N          65.9639   92.1830   10.4721 N.ar    1  UNL1       -0.2453
     18 C          65.2493   92.4124   11.7709 C.ar    1  UNL1        0.0858
     19 C          65.6710   93.7504   12.3020 C.ar    1  UNL1        0.0530
     20 S          66.6462   94.3479   11.3313 S.2     1  UNL1       -0.0705
     21 C          68.7172   92.5187    8.6393 C.3     1  UNL1        0.0069
     22 C          67.7155   93.5727    9.0074 C.3     1  UNL1        0.0465
     23 C          67.6021   94.8203    8.1824 C.3     1  UNL1        0.0069
     24 C          63.2188   86.7731   16.4103 C.3     1  UNL1        0.1661
     25 O          62.3171   85.5743   16.4141 O.3     1  UNL1       -0.3798
     26 H          61.6113   85.6986   15.7605 H       1  UNL1        0.2105
     27 C          63.4219   84.9743   10.5766 C.3     1  UNL1        0.0216
     28 C          62.0137   85.0741   10.0695 C.3     1  UNL1        0.0217
     29 C          61.3078   86.3976   10.0716 C.3     1  UNL1        0.0792
     30 N          61.2160   87.2006    8.8080 N.am    1  UNL1       -0.2720
     31 C          59.8893   87.3889    8.1337 C.2     1  UNL1        0.4019
     32 O          58.6545   86.7743    8.7231 O.2     1  UNL1       -0.2264
     33 H          62.0264   87.6041    8.4211 H       1  UNL1        0.1527
     34 O          59.7974   88.1919    6.8701 O.3     1  UNL1       -0.4291
     35 C          58.7154   89.2184    6.7107 C.3     1  UNL1        0.2447
     36 C          58.9046   90.3670    5.7647 C.ar    1  UNL1        0.0714
     37 C          57.8196   91.2459    5.2168 C.ar    1  UNL1        0.1053
     38 N          58.4565   92.2605    4.3140 N.ar    1  UNL1       -0.2350
     39 C          59.9351   92.0086    4.3039 C.ar    1  UNL1        0.1343
     40 S          60.2121   90.8384    5.2005 S.2     1  UNL1       -0.0652
     41 C          60.6937   86.9181   11.3373 C.3     1  UNL1        0.0460
     42 C          60.2180   88.3388   11.4111 C.ar    1  UNL1       -0.0205
     43 C          60.9761   89.4214   10.7016 C.ar    1  UNL1       -0.0042
     44 C          60.5004   90.8420   10.7755 C.ar    1  UNL1       -0.0003
     45 C          59.2667   91.1801   11.5589 C.ar    1  UNL1       -0.0000
     46 C          58.5087   90.0975   12.2684 C.ar    1  UNL1       -0.0003
     47 C          58.9843   88.6769   12.1945 C.ar    1  UNL1       -0.0042
     48 C          64.2197   83.3954   12.4794 C.3     1  UNL1        0.0459
     49 C          63.2797   82.3061   12.9034 C.ar    1  UNL1       -0.0205
     50 C          63.3293   80.9677   12.2281 C.ar    1  UNL1       -0.0042
     51 C          62.3893   79.8783   12.6522 C.ar    1  UNL1       -0.0003
     52 C          61.3998   80.1274   13.7516 C.ar    1  UNL1       -0.0000
     53 C          61.3503   81.4659   14.4270 C.ar    1  UNL1       -0.0003
     54 C          62.2902   82.5552   14.0030 C.ar    1  UNL1       -0.0042
@<TRIPOS>BOND
     1    21    22    1
     2    22    23    1
     3    22    16    1
     4    16    17   ar
     5    17    18   ar
     6    18    15    1
     7    15     7    1
     8     7     8   am
     9     8     9    2
    10     8    10   am
    11    10     6    1
    12     6    24    1
    13    24    25    1
    14     6     2    1
    15     2     3    2
    16     2     4   am
    17     4     1    1
    18     1    27    1
    19    27    28    1
    20    29    28    1
    21    29    41    1
    22    41    42    1
    23    42    43   ar
    24    43    44   ar
    25    44    45   ar
    26    45    46   ar
    27    46    47   ar
    28    29    30    1
    29    30    31   am
    30    31    32    2
    31    31    34    1
    32    34    35    1
    33    35    36    1
    34    36    37   ar
    35    37    38   ar
    36    38    39   ar
    37    39    40   ar
    38     1    48    1
    39    48    49    1
    40    49    50   ar
    41    50    51   ar
    42    51    52   ar
    43    52    53   ar
    44    53    54   ar
    45     7    12    1
    46    12    13    1
    47    13    14    1
    48    18    19   ar
    49    19    20   ar
    50    20    16   ar
    51    47    42   ar
    52    40    36   ar
    53    54    49   ar
    54    14    12    1
    55    10    11    1
    56    25    26    1
    57     4     5    1
    58    30    33    1
@<TRIPOS>MOLECULE
*****
 54 58 0 0 0
SMALL
GASTEIGER

@<TRIPOS>ATOM
      1 C          64.4012   90.9950   14.8814 C.3     1  UNL1        0.0760
      2 C          63.2465   89.2966   16.4727 C.2     1  UNL1        0.2429
      3 O          62.3078   90.3702   16.9375 O.2     1  UNL1       -0.2732
      4 N          64.2932   89.6090   15.4446 N.am    1  UNL1       -0.3042
      5 H          64.9094   88.9043   15.1396 H       1  UNL1        0.1494
      6 CA         63.1386   87.9106   17.0359 C.3     1  UNL1        0.1793
      7 N          62.9345   84.3941   15.2076 N.am    1  UNL1       -0.2601
      8 C          62.5604   85.5773   16.0502 C.2     1  UNL1        0.3046
      9 O          61.2340   85.6104   16.7499 O.2     1  UNL1       -0.2526
     10 N          63.5127   86.7273   16.1932 N.am    1  UNL1       -0.2805
     11 H          64.3833   86.7056   15.7340 H       1  UNL1        0.1514
     12 C          64.2609   84.3610   14.5079 C.3     1  UNL1        0.0773
     13 C          65.0700   84.1191   13.2683 C.3     1  UNL1        0.0216
     14 C          65.7492   84.5454   14.5358 C.3     1  UNL1        0.0216
     15 C          61.9822   83.2440   15.0646 C.3     1  UNL1        0.1412
     16 C          62.8043   81.1119   11.9271 C.ar    1  UNL1        0.0875
     17 N          62.7008   82.4387   12.6191 N.ar    1  UNL1       -0.2453
     18 C          62.2249   82.1947   14.0206 C.ar    1  UNL1        0.0858
     19 C          62.0342   80.7170   14.1947 C.ar    1  UNL1        0.0530
     20 S          62.3924   80.0478   12.9009 S.2     1  UNL1       -0.0705
     21 C          64.0683   81.9255    9.8081 C.3     1  UNL1        0.0069
     22 C          63.2428   80.8883   10.5103 C.3     1  UNL1        0.0465
     23 C          62.8558   79.6277    9.7954 C.3     1  UNL1        0.0069
     24 C          62.6565   87.7077   18.4418 C.3     1  UNL1        0.1661
     25 O          62.7591   86.3551   19.0820 O.3     1  UNL1       -0.3798
     26 H          62.1760   85.7332   18.6192 H       1  UNL1        0.2105
     27 C          63.7021   91.3405   13.6001 C.3     1  UNL1        0.0216
     28 C          64.1830   90.7600   12.3033 C.3     1  UNL1        0.0217
     29 C          63.9853   91.5171   11.0235 C.3     1  UNL1        0.0792
     30 N          63.2060   90.9004    9.8999 N.am    1  UNL1       -0.2720
     31 C          61.8307   90.3567   10.1510 C.2     1  UNL1        0.4019
     32 O          61.2347   90.4298   11.5255 O.2     1  UNL1       -0.2264
     33 H          63.5972   90.8524    8.9978 H       1  UNL1        0.1527
     34 O          61.0514   89.7399    9.0275 O.3     1  UNL1       -0.4291
     35 C          60.3961   88.4037    9.2142 C.3     1  UNL1        0.2447
     36 C          61.1956   87.2407    9.7224 C.ar    1  UNL1        0.0714
     37 C          62.0364   86.3180    8.8906 C.ar    1  UNL1        0.1053
     38 N          62.6552   85.3033    9.8057 N.ar    1  UNL1       -0.2350
     39 C          62.1968   85.5988   11.2031 C.ar    1  UNL1        0.1343
     40 S          61.2948   86.7961   11.1515 S.2     1  UNL1       -0.0652
     41 C          64.5669   92.8909   10.8673 C.3     1  UNL1        0.0460
     42 C          65.9665   93.0590   10.3546 C.ar    1  UNL1       -0.0205
     43 C          66.4258   94.3958    9.8526 C.ar    1  UNL1       -0.0042
     44 C          67.8254   94.5639    9.3399 C.ar    1  UNL1       -0.0003
     45 C          68.7656   93.3952    9.3291 C.ar    1  UNL1       -0.0000
     46 C          68.3063   92.0584    9.8310 C.ar    1  UNL1       -0.0003
     47 C          66.9067   91.8903   10.3437 C.ar    1  UNL1       -0.0042
     48 C          65.2083   92.0357   15.5996 C.3     1  UNL1        0.0459
     49 C          66.6515   92.2414   15.2461 C.ar    1  UNL1       -0.0205
     50 C          67.1970   91.6827   13.9654 C.ar    1  UNL1       -0.0042
     51 C          68.6401   91.8884   13.6120 C.ar    1  UNL1       -0.0003
     52 C          69.5378   92.6528   14.5392 C.ar    1  UNL1       -0.0000
     53 C          68.9923   93.2116   15.8200 C.ar    1  UNL1       -0.0003
     54 C          67.5491   93.0059   16.1734 C.ar    1  UNL1       -0.0042
@<TRIPOS>BOND
     1    21    22    1
     2    22    23    1
     3    22    16    1
     4    16    17   ar
     5    17    18   ar
     6    18    15    1
     7    15     7    1
     8     7     8   am
     9     8     9    2
    10     8    10   am
    11    10     6    1
    12     6    24    1
    13    24    25    1
    14     6     2    1
    15     2     3    2
    16     2     4   am
    17     4     1    1
    18     1    27    1
    19    27    28    1
    20    29    28    1
    21    29    41    1
    22    41    42    1
    23    42    43   ar
    24    43    44   ar
    25    44    45   ar
    26    45    46   ar
    27    46    47   ar
    28    29    30    1
    29    30    31   am
    30    31    32    2
    31    31    34    1
    32    34    35    1
    33    35    36    1
    34    36    37   ar
    35    37    38   ar
    36    38    39   ar
    37    39    40   ar
    38     1    48    1
    39    48    49    1
    40    49    50   ar
    41    50    51   ar
    42    51    52   ar
    43    52    53   ar
    44    53    54   ar
    45     7    12    1
    46    12    13    1
    47    13    14    1
    48    18    19   ar
    49    19    20   ar
    50    20    16   ar
    51    47    42   ar
    52    40    36   ar
    53    54    49   ar
    54    14    12    1
    55    10    11    1
    56    25    26    1
    57     4     5    1
    58    30    33    1
@<TRIPOS>MOLECULE
*****
 54 58 0 0 0
SMALL
GASTEIGER

@<TRIPOS>ATOM
      1 C          62.2909   90.2359   10.3286 C.3     1  UNL1        0.0760
      2 C          60.3858   89.9398    8.5869 C.2     1  UNL1        0.2429
      3 O          59.3845   90.4021    9.6035 O.2     1  UNL1       -0.2732
      4 N          61.8391   89.8566    8.9494 N.am    1  UNL1       -0.3042
      5 H          62.4963   89.5532    8.2822 H       1  UNL1        0.1494
      6 CA         59.9340   89.5605    7.2078 C.3     1  UNL1        0.1793
      7 N          60.2517   91.8532    3.9840 N.am    1  UNL1       -0.2601
      8 C          59.6669   91.1638    5.1808 C.2     1  UNL1        0.3046
      9 O          58.2298   91.3881    5.5477 O.2     1  UNL1       -0.2526
     10 N          60.5190   90.2500    6.0108 N.am    1  UNL1       -0.2805
     11 H          61.4622   90.1028    5.7700 H       1  UNL1        0.1514
     12 C          61.6887   91.6289    3.6171 C.3     1  UNL1        0.0773
     13 C          62.9139   90.7637    3.6339 C.3     1  UNL1        0.0216
     14 C          62.9526   92.1056    2.9649 C.3     1  UNL1        0.0216
     15 C          59.3996   92.7670    3.1540 C.3     1  UNL1        0.1412
     16 C          60.7058   93.7928   -0.3542 C.ar    1  UNL1        0.0875
     17 N          60.0763   92.7913    0.5681 N.ar    1  UNL1       -0.2453
     18 C          59.9697   93.4160    1.9277 C.ar    1  UNL1        0.0858
     19 C          60.5334   94.8036    1.8457 C.ar    1  UNL1        0.0530
     20 S          60.9883   95.0366    0.4354 S.2     1  UNL1       -0.0705
     21 C          62.4144   93.3774   -2.2667 C.3     1  UNL1        0.0069
     22 C          61.0010   93.5868   -1.8103 C.3     1  UNL1        0.0465
     23 C          59.8828   93.5902   -2.8100 C.3     1  UNL1        0.0069
     24 C          58.8974   88.4919    7.0255 C.3     1  UNL1        0.1661
     25 O          58.2740   87.8395    8.2237 O.3     1  UNL1       -0.3798
     26 H          58.9477   87.3320    8.7027 H       1  UNL1        0.2105
     27 C          62.0093   89.3254   11.4869 C.3     1  UNL1        0.0216
     28 C          62.9188   88.1662   11.7680 C.3     1  UNL1        0.0217
     29 C          62.4012   86.7627   11.6572 C.3     1  UNL1        0.0792
     30 N          63.0164   85.6693   12.4794 N.am    1  UNL1       -0.2720
     31 C          63.7277   86.0018   13.7576 C.2     1  UNL1        0.4019
     32 O          63.8237   87.4276   14.2134 O.2     1  UNL1       -0.2264
     33 H          62.9534   84.7335   12.1802 H       1  UNL1        0.1527
     34 O          64.3430   84.9085   14.5798 O.3     1  UNL1       -0.4291
     35 C          64.6036   83.5648   13.9662 C.3     1  UNL1        0.2447
     36 C          63.5210   82.5267   13.9460 C.ar    1  UNL1        0.0714
     37 C          62.1795   82.6389   14.6076 C.ar    1  UNL1        0.1053
     38 N          61.4192   81.3757   14.3312 N.ar    1  UNL1       -0.2350
     39 C          62.2909   80.4829   13.4987 C.ar    1  UNL1        0.1343
     40 S          63.5898   81.1942   13.2607 S.2     1  UNL1       -0.0652
     41 C          61.2683   86.4525   10.7242 C.3     1  UNL1        0.0460
     42 C          61.5510   85.8966    9.3600 C.ar    1  UNL1       -0.0205
     43 C          60.4719   85.8809    8.3182 C.ar    1  UNL1       -0.0042
     44 C          60.7546   85.3250    6.9540 C.ar    1  UNL1       -0.0003
     45 C          62.1163   84.7848    6.6316 C.ar    1  UNL1       -0.0000
     46 C          63.1954   84.8006    7.6734 C.ar    1  UNL1       -0.0003
     47 C          62.9127   85.3565    9.0376 C.ar    1  UNL1       -0.0042
     48 C          63.0243   91.5256   10.5494 C.3     1  UNL1        0.0459
     49 C          64.1223   91.5990   11.5687 C.ar    1  UNL1       -0.0205
     50 C          65.4445   92.2063   11.2043 C.ar    1  UNL1       -0.0042
     51 C          66.5426   92.2796   12.2236 C.ar    1  UNL1       -0.0003
     52 C          66.3183   91.7458   13.6073 C.ar    1  UNL1       -0.0000
     53 C          64.9960   91.1385   13.9717 C.ar    1  UNL1       -0.0003
     54 C          63.8980   91.0651   12.9524 C.ar    1  UNL1       -0.0042
@<TRIPOS>BOND
     1    21    22    1
     2    22    23    1
     3    22    16    1
     4    16    17   ar
     5    17    18   ar
     6    18    15    1
     7    15     7    1
     8     7     8   am
     9     8     9    2
    10     8    10   am
    11    10     6    1
    12     6    24    1
    13    24    25    1
    14     6     2    1
    15     2     3    2
    16     2     4   am
    17     4     1    1
    18     1    27    1
    19    27    28    1
    20    29    28    1
    21    29    41    1
    22    41    42    1
    23    42    43   ar
    24    43    44   ar
    25    44    45   ar
    26    45    46   ar
    27    46    47   ar
    28    29    30    1
    29    30    31   am
    30    31    32    2
    31    31    34    1
    32    34    35    1
    33    35    36    1
    34    36    37   ar
    35    37    38   ar
    36    38    39   ar
    37    39    40   ar
    38     1    48    1
    39    48    49    1
    40    49    50   ar
    41    50    51   ar
    42    51    52   ar
    43    52    53   ar
    44    53    54   ar
    45     7    12    1
    46    12    13    1
    47    13    14    1
    48    18    19   ar
    49    19    20   ar
    50    20    16   ar
    51    47    42   ar
    52    40    36   ar
    53    54    49   ar
    54    14    12    1
    55    10    11    1
    56    25    26    1
    57     4     5    1
    58    30    33    1
@<TRIPOS>MOLECULE
*****
 54 58 0 0 0
SMALL
GASTEIGER

@<TRIPOS>ATOM
      1 C          64.6038   90.9749   14.6310 C.3     1  UNL1        0.0760
      2 C          63.4306   89.0652   15.9452 C.2     1  UNL1        0.2429
      3 O          62.6856   90.0823   16.7580 O.2     1  UNL1       -0.2732
      4 N          64.3897   89.5115   14.8817 N.am    1  UNL1       -0.3042
      5 H          64.8786   88.8440   14.3482 H       1  UNL1        0.1494
      6 CA         63.2164   87.6019   16.1959 C.3     1  UNL1        0.1793
      7 N          63.5342   84.2468   14.1001 N.am    1  UNL1       -0.2601
      8 C          63.5701   85.2075   15.2515 C.2     1  UNL1        0.3046
      9 O          63.9956   84.7346   16.6100 O.2     1  UNL1       -0.2526
     10 N          63.1805   86.6412   15.0444 N.am    1  UNL1       -0.2805
     11 H          62.9012   86.9515   14.1528 H       1  UNL1        0.1514
     12 C          63.1087   84.7197   12.7417 C.3     1  UNL1        0.0773
     13 C          62.4751   85.7618   11.8686 C.3     1  UNL1        0.0216
     14 C          63.0053   84.4966   11.2620 C.3     1  UNL1        0.0216
     15 C          63.9238   82.8131   14.3072 C.3     1  UNL1        0.1412
     16 C          60.8420   80.4686   14.0396 C.ar    1  UNL1        0.0875
     17 N          61.4676   81.7682   14.4515 N.ar    1  UNL1       -0.2453
     18 C          62.9198   81.7225   14.0781 C.ar    1  UNL1        0.0858
     19 C          63.1915   80.3946   13.4355 C.ar    1  UNL1        0.0530
     20 S          61.9074   79.6197   13.4117 S.2     1  UNL1       -0.0705
     21 C          59.0442   78.6772   14.5950 C.3     1  UNL1        0.0069
     22 C          59.4035   80.0853   14.2234 C.3     1  UNL1        0.0465
     23 C          58.3244   81.1101   14.0357 C.3     1  UNL1        0.0069
     24 C          63.0382   87.0993   17.5978 C.3     1  UNL1        0.1661
     25 O          61.8969   86.1833   17.9268 O.3     1  UNL1       -0.3798
     26 H          61.0586   86.6589   17.8171 H       1  UNL1        0.2105
     27 C          64.0342   91.6162   13.4005 C.3     1  UNL1        0.0216
     28 C          64.2700   90.9974   12.0547 C.3     1  UNL1        0.0217
     29 C          63.9610   91.7726   10.8082 C.3     1  UNL1        0.0792
     30 N          62.9903   91.2238    9.8049 N.am    1  UNL1       -0.2720
     31 C          61.7656   90.4923   10.2687 C.2     1  UNL1        0.4019
     32 O          61.5116   90.3097   11.7357 O.2     1  UNL1       -0.2264
     33 H          63.1570   91.3437    8.8421 H       1  UNL1        0.1527
     34 O          60.7949   89.9435    9.2654 O.3     1  UNL1       -0.4291
     35 C          60.0380   88.6838    9.5655 C.3     1  UNL1        0.2447
     36 C          60.2357   87.4680    8.7094 C.ar    1  UNL1        0.0714
     37 C          59.1943   86.8178    7.8476 C.ar    1  UNL1        0.1053
     38 N          59.8244   85.6370    7.1703 N.ar    1  UNL1       -0.2350
     39 C          61.2552   85.5574    7.6136 C.ar    1  UNL1        0.1343
     40 S          61.5094   86.6891    8.5648 S.2     1  UNL1       -0.0652
     41 C          64.6228   93.0966   10.5650 C.3     1  UNL1        0.0460
     42 C          66.0663   93.1506   10.1606 C.ar    1  UNL1       -0.0205
     43 C          66.9685   91.9863   10.4439 C.ar    1  UNL1       -0.0042
     44 C          68.4120   92.0403   10.0395 C.ar    1  UNL1       -0.0003
     45 C          68.9531   93.2586    9.3518 C.ar    1  UNL1       -0.0000
     46 C          68.0508   94.4229    9.0685 C.ar    1  UNL1       -0.0003
     47 C          66.6074   94.3689    9.4729 C.ar    1  UNL1       -0.0042
     48 C          65.3875   91.7968   15.6110 C.3     1  UNL1        0.0459
     49 C          66.8170   92.1473   15.3217 C.ar    1  UNL1       -0.0205
     50 C          67.5885   93.0033   16.2820 C.ar    1  UNL1       -0.0042
     51 C          69.0180   93.3538   15.9927 C.ar    1  UNL1       -0.0003
     52 C          69.6760   92.8484   14.7431 C.ar    1  UNL1       -0.0000
     53 C          68.9046   91.9923   13.7828 C.ar    1  UNL1       -0.0003
     54 C          67.4751   91.6418   14.0721 C.ar    1  UNL1       -0.0042
@<TRIPOS>BOND
     1    21    22    1
     2    22    23    1
     3    22    16    1
     4    16    17   ar
     5    17    18   ar
     6    18    15    1
     7    15     7    1
     8     7     8   am
     9     8     9    2
    10     8    10   am
    11    10     6    1
    12     6    24    1
    13    24    25    1
    14     6     2    1
    15     2     3    2
    16     2     4   am
    17     4     1    1
    18     1    27    1
    19    27    28    1
    20    29    28    1
    21    29    41    1
    22    41    42    1
    23    42    43   ar
    24    43    44   ar
    25    44    45   ar
    26    45    46   ar
    27    46    47   ar
    28    29    30    1
    29    30    31   am
    30    31    32    2
    31    31    34    1
    32    34    35    1
    33    35    36    1
    34    36    37   ar
    35    37    38   ar
    36    38    39   ar
    37    39    40   ar
    38     1    48    1
    39    48    49    1
    40    49    50   ar
    41    50    51   ar
    42    51    52   ar
    43    52    53   ar
    44    53    54   ar
    45     7    12    1
    46    12    13    1
    47    13    14    1
    48    18    19   ar
    49    19    20   ar
    50    20    16   ar
    51    47    42   ar
    52    40    36   ar
    53    54    49   ar
    54    14    12    1
    55    10    11    1
    56    25    26    1
    57     4     5    1
    58    30    33    1
@<TRIPOS>MOLECULE
*****
 54 58 0 0 0
SMALL
GASTEIGER

@<TRIPOS>ATOM
      1 C          64.6977   91.0423   14.6886 C.3     1  UNL1        0.0760
      2 C          63.4479   89.1856   16.0081 C.2     1  UNL1        0.2429
      3 O          62.7707   90.2333   16.8409 O.2     1  UNL1       -0.2732
      4 N          64.4114   89.5901   14.9319 N.am    1  UNL1       -0.3042
      5 H          64.8558   88.9024   14.3852 H       1  UNL1        0.1494
      6 CA         63.1616   87.7334   16.2513 C.3     1  UNL1        0.1793
      7 N          63.6686   84.4350   14.1034 N.am    1  UNL1       -0.2601
      8 C          63.7025   85.3958   15.2548 C.2     1  UNL1        0.3046
      9 O          64.3114   84.9799   16.5611 O.2     1  UNL1       -0.2526
     10 N          63.1276   86.7726   15.0999 N.am    1  UNL1       -0.2805
     11 H          62.7280   87.0456   14.2425 H       1  UNL1        0.1514
     12 C          63.0598   84.8509   12.7972 C.3     1  UNL1        0.0773
     13 C          62.6482   85.9310   11.8413 C.3     1  UNL1        0.0216
     14 C          62.4167   84.4911   11.4907 C.3     1  UNL1        0.0216
     15 C          64.2435   83.0582   14.2583 C.3     1  UNL1        0.1412
     16 C          62.8744   80.1523   12.0796 C.ar    1  UNL1        0.0875
     17 N          63.7894   81.3247   12.2749 N.ar    1  UNL1       -0.2453
     18 C          63.5447   81.8804   13.6466 C.ar    1  UNL1        0.0858
     19 C          62.4783   81.0514   14.2990 C.ar    1  UNL1        0.0530
     20 S          62.0640   79.9834   13.3306 S.2     1  UNL1       -0.0705
     21 C          62.8866   79.9275    9.4914 C.3     1  UNL1        0.0069
     22 C          62.7853   79.2988   10.8495 C.3     1  UNL1        0.0465
     23 C          62.5948   77.8164   10.9773 C.3     1  UNL1        0.0069
     24 C          62.9092   87.2421   17.6459 C.3     1  UNL1        0.1661
     25 O          61.9365   86.1251   17.8830 O.3     1  UNL1       -0.3798
     26 H          61.0422   86.4203   17.6506 H       1  UNL1        0.2105
     27 C          64.1790   91.7119   13.4507 C.3     1  UNL1        0.0216
     28 C          64.2912   91.0236   12.1227 C.3     1  UNL1        0.0217
     29 C          63.9474   91.7627   10.8634 C.3     1  UNL1        0.0792
     30 N          62.9509   91.1845    9.9028 N.am    1  UNL1       -0.2720
     31 C          61.7353   90.4740   10.4202 C.2     1  UNL1        0.4019
     32 O          61.5163   90.3416   11.8982 O.2     1  UNL1       -0.2264
     33 H          63.0946   91.2714    8.9327 H       1  UNL1        0.1527
     34 O          60.7388   89.8959    9.4596 O.3     1  UNL1       -0.4291
     35 C          60.0653   88.5925    9.7716 C.3     1  UNL1        0.2447
     36 C          60.1867   87.4389    8.8205 C.ar    1  UNL1        0.0714
     37 C          59.1065   86.9245    7.9159 C.ar    1  UNL1        0.1053
     38 N          59.6619   85.7649    7.1434 N.ar    1  UNL1       -0.2350
     39 C          61.0855   85.5626    7.5705 C.ar    1  UNL1        0.1343
     40 S          61.4098   86.5973    8.6071 S.2     1  UNL1       -0.0652
     41 C          64.6001   93.0798   10.5648 C.3     1  UNL1        0.0460
     42 C          66.0485   93.1284   10.1779 C.ar    1  UNL1       -0.0205
     43 C          66.9607   91.9949   10.5425 C.ar    1  UNL1       -0.0042
     44 C          68.4091   92.0436   10.1555 C.ar    1  UNL1       -0.0003
     45 C          68.9453   93.2258    9.4040 C.ar    1  UNL1       -0.0000
     46 C          68.0331   94.3594    9.0394 C.ar    1  UNL1       -0.0003
     47 C          66.5847   94.3107    9.4264 C.ar    1  UNL1       -0.0042
     48 C          65.5027   91.8249   15.6834 C.3     1  UNL1        0.0459
     49 C          66.9234   92.1938   15.3744 C.ar    1  UNL1       -0.0205
     50 C          67.5873   91.6543   14.1423 C.ar    1  UNL1       -0.0042
     51 C          69.0081   92.0231   13.8333 C.ar    1  UNL1       -0.0003
     52 C          69.7649   92.9315   14.7564 C.ar    1  UNL1       -0.0000
     53 C          69.1009   93.4711   15.9885 C.ar    1  UNL1       -0.0003
     54 C          67.6802   93.1022   16.2975 C.ar    1  UNL1       -0.0042
@<TRIPOS>BOND
     1    21    22    1
     2    22    23    1
     3    22    16    1
     4    16    17   ar
     5    17    18   ar
     6    18    15    1
     7    15     7    1
     8     7     8   am
     9     8     9    2
    10     8    10   am
    11    10     6    1
    12     6    24    1
    13    24    25    1
    14     6     2    1
    15     2     3    2
    16     2     4   am
    17     4     1    1
    18     1    27    1
    19    27    28    1
    20    29    28    1
    21    29    41    1
    22    41    42    1
    23    42    43   ar
    24    43    44   ar
    25    44    45   ar
    26    45    46   ar
    27    46    47   ar
    28    29    30    1
    29    30    31   am
    30    31    32    2
    31    31    34    1
    32    34    35    1
    33    35    36    1
    34    36    37   ar
    35    37    38   ar
    36    38    39   ar
    37    39    40   ar
    38     1    48    1
    39    48    49    1
    40    49    50   ar
    41    50    51   ar
    42    51    52   ar
    43    52    53   ar
    44    53    54   ar
    45     7    12    1
    46    12    13    1
    47    13    14    1
    48    18    19   ar
    49    19    20   ar
    50    20    16   ar
    51    47    42   ar
    52    40    36   ar
    53    54    49   ar
    54    14    12    1
    55    10    11    1
    56    25    26    1
    57     4     5    1
    58    30    33    1
@<TRIPOS>MOLECULE
*****
 54 58 0 0 0
SMALL
GASTEIGER

@<TRIPOS>ATOM
      1 C          63.0083   85.0429   12.9764 C.3     1  UNL1        0.0760
      2 C          63.9740   86.5442   14.8641 C.2     1  UNL1        0.2429
      3 O          65.1539   85.6267   14.9902 O.2     1  UNL1       -0.2732
      4 N          62.9011   86.2523   13.8572 N.am    1  UNL1       -0.3042
      5 H          62.1267   86.8545   13.7745 H       1  UNL1        0.1494
      6 CA         63.8669   87.7536   15.7450 C.3     1  UNL1        0.1793
      7 N          64.7945   91.0265   13.7011 N.am    1  UNL1       -0.2601
      8 C          64.1195   89.7473   14.0983 C.2     1  UNL1        0.3046
      9 O          63.0220   89.1823   13.2460 O.2     1  UNL1       -0.2526
     10 N          64.5420   89.0329   15.3478 N.am    1  UNL1       -0.2805
     11 H          65.2623   89.4037   15.9072 H       1  UNL1        0.1514
     12 C          65.8920   91.5914   14.5533 C.3     1  UNL1        0.0773
     13 C          66.3570   92.5643   15.5960 C.3     1  UNL1        0.0216
     14 C          67.3280   91.5968   14.9869 C.3     1  UNL1        0.0216
     15 C          64.3721   91.7409   12.4516 C.3     1  UNL1        0.1412
     16 C          66.9470   93.4751   10.1217 C.ar    1  UNL1        0.0875
     17 N          66.0988   92.2932   10.4872 N.ar    1  UNL1       -0.2453
     18 C          65.3401   92.6352   11.7352 C.ar    1  UNL1        0.0858
     19 C          65.7193   94.0286   12.1410 C.ar    1  UNL1        0.0530
     20 S          66.7125   94.5477   11.1438 S.2     1  UNL1       -0.0705
     21 C          67.9248   94.8299    8.1322 C.3     1  UNL1        0.0069
     22 C          67.8679   93.5682    8.9415 C.3     1  UNL1        0.0465
     23 C          68.7320   92.3996    8.5705 C.3     1  UNL1        0.0069
     24 C          63.0847   87.6838   17.0229 C.3     1  UNL1        0.1661
     25 O          62.4930   86.3799   17.4698 O.3     1  UNL1       -0.3798
     26 H          61.8052   86.1053   16.8433 H       1  UNL1        0.2105
     27 C          62.3635   85.0420   11.6221 C.3     1  UNL1        0.0216
     28 C          61.8437   86.3221   11.0380 C.3     1  UNL1        0.0217
     29 C          61.7656   86.4901    9.5495 C.3     1  UNL1        0.0792
     30 N          60.6636   87.3079    8.9438 N.am    1  UNL1       -0.2720
     31 C          60.7290   88.8058    8.9899 C.2     1  UNL1        0.4019
     32 O          61.8964   89.4859    9.6415 O.2     1  UNL1       -0.2264
     33 H          59.8974   86.8615    8.5161 H       1  UNL1        0.1527
     34 O          59.6270   89.6236    8.3842 O.3     1  UNL1       -0.4291
     35 C          59.1104   89.2899    7.0161 C.3     1  UNL1        0.2447
     36 C          59.0116   90.3604    5.9700 C.ar    1  UNL1        0.0714
     37 C          57.7459   90.9951    5.4748 C.ar    1  UNL1        0.1053
     38 N          58.1131   92.0111    4.4342 N.ar    1  UNL1       -0.2350
     39 C          59.6058   92.0044    4.2863 C.ar    1  UNL1        0.1343
     40 S          60.1610   90.9842    5.2355 S.2     1  UNL1       -0.0652
     41 C          62.7895   85.8403    8.6666 C.3     1  UNL1        0.0460
     42 C          62.3659   85.1755    7.3904 C.ar    1  UNL1       -0.0205
     43 C          63.3937   84.7936    6.3667 C.ar    1  UNL1       -0.0042
     44 C          62.9701   84.1288    5.0906 C.ar    1  UNL1       -0.0003
     45 C          61.5188   83.8459    4.8381 C.ar    1  UNL1       -0.0000
     46 C          60.4911   84.2278    5.8618 C.ar    1  UNL1       -0.0003
     47 C          60.9147   84.8926    7.1379 C.ar    1  UNL1       -0.0042
     48 C          63.7602   83.8344   13.4499 C.3     1  UNL1        0.0459
     49 C          63.1149   82.4814   13.3973 C.ar    1  UNL1       -0.0205
     50 C          62.0267   82.1311   14.3685 C.ar    1  UNL1       -0.0042
     51 C          61.3814   80.7781   14.3159 C.ar    1  UNL1       -0.0003
     52 C          61.8242   79.7752   13.2920 C.ar    1  UNL1       -0.0000
     53 C          62.9124   80.1255   12.3208 C.ar    1  UNL1       -0.0003
     54 C          63.5577   81.4785   12.3734 C.ar    1  UNL1       -0.0042
@<TRIPOS>BOND
     1    21    22    1
     2    22    23    1
     3    22    16    1
     4    16    17   ar
     5    17    18   ar
     6    18    15    1
     7    15     7    1
     8     7     8   am
     9     8     9    2
    10     8    10   am
    11    10     6    1
    12     6    24    1
    13    24    25    1
    14     6     2    1
    15     2     3    2
    16     2     4   am
    17     4     1    1
    18     1    27    1
    19    27    28    1
    20    29    28    1
    21    29    41    1
    22    41    42    1
    23    42    43   ar
    24    43    44   ar
    25    44    45   ar
    26    45    46   ar
    27    46    47   ar
    28    29    30    1
    29    30    31   am
    30    31    32    2
    31    31    34    1
    32    34    35    1
    33    35    36    1
    34    36    37   ar
    35    37    38   ar
    36    38    39   ar
    37    39    40   ar
    38     1    48    1
    39    48    49    1
    40    49    50   ar
    41    50    51   ar
    42    51    52   ar
    43    52    53   ar
    44    53    54   ar
    45     7    12    1
    46    12    13    1
    47    13    14    1
    48    18    19   ar
    49    19    20   ar
    50    20    16   ar
    51    47    42   ar
    52    40    36   ar
    53    54    49   ar
    54    14    12    1
    55    10    11    1
    56    25    26    1
    57     4     5    1
    58    30    33    1
@<TRIPOS>MOLECULE
*****
 54 58 0 0 0
SMALL
GASTEIGER

@<TRIPOS>ATOM
      1 C          61.8798   88.7070   10.6237 C.3     1  UNL1        0.0760
      2 C          60.2609   89.3693    8.7026 C.2     1  UNL1        0.2429
      3 O          59.6917   90.4615    9.5587 O.2     1  UNL1       -0.2732
      4 N          61.3549   88.4920    9.2350 N.am    1  UNL1       -0.3042
      5 H          61.7285   87.7751    8.6731 H       1  UNL1        0.1494
      6 CA         59.7360   89.1543    7.3139 C.3     1  UNL1        0.1793
      7 N          60.1238   91.6530    4.2552 N.am    1  UNL1       -0.2601
      8 C          59.5208   90.9075    5.4087 C.2     1  UNL1        0.3046
      9 O          58.0996   91.1696    5.8105 O.2     1  UNL1       -0.2526
     10 N          60.3390   89.8998    6.1604 N.am    1  UNL1       -0.2805
     11 H          61.2718   89.7277    5.8967 H       1  UNL1        0.1514
     12 C          61.5450   91.3908    3.8534 C.3     1  UNL1        0.0773
     13 C          62.6954   90.4419    3.6923 C.3     1  UNL1        0.0216
     14 C          62.8562   91.8857    3.3187 C.3     1  UNL1        0.0216
     15 C          59.3056   92.6607    3.5034 C.3     1  UNL1        0.1412
     16 C          60.4401   93.6146   -0.0839 C.ar    1  UNL1        0.0875
     17 N          59.7893   92.6617    0.8745 N.ar    1  UNL1       -0.2453
     18 C          59.8421   93.2727    2.2435 C.ar    1  UNL1        0.0858
     19 C          60.5256   94.6032    2.1311 C.ar    1  UNL1        0.0530
     20 S          60.8952   94.8146    0.6927 S.2     1  UNL1       -0.0705
     21 C          59.4061   93.1428   -2.4201 C.3     1  UNL1        0.0069
     22 C          60.6066   93.4045   -1.5596 C.3     1  UNL1        0.0465
     23 C          61.9735   93.4560   -2.1750 C.3     1  UNL1        0.0069
     24 C          58.6081   88.1938    7.0788 C.3     1  UNL1        0.1661
     25 O          58.6067   86.8574    7.7600 O.3     1  UNL1       -0.3798
     26 H          59.3458   86.3243    7.4277 H       1  UNL1        0.2105
     27 C          62.4839   87.5629   11.3826 C.3     1  UNL1        0.0216
     28 C          61.8974   86.1880   11.2590 C.3     1  UNL1        0.0217
     29 C          62.4944   85.0460   12.0269 C.3     1  UNL1        0.0792
     30 N          62.7996   85.2024   13.4872 N.am    1  UNL1       -0.2720
     31 C          64.1313   84.7701   14.0255 C.2     1  UNL1        0.4019
     32 O          65.1577   84.1815   13.1036 O.2     1  UNL1       -0.2264
     33 H          62.1260   85.5888   14.0923 H       1  UNL1        0.1527
     34 O          64.4366   84.9265   15.4858 O.3     1  UNL1       -0.4291
     35 C          63.5343   85.7495   16.3567 C.3     1  UNL1        0.2447
     36 C          63.5316   87.2444   16.2330 C.ar    1  UNL1        0.0714
     37 C          64.1680   88.0392   15.1314 C.ar    1  UNL1        0.1053
     38 N          63.9218   89.4930   15.4068 N.ar    1  UNL1       -0.2350
     39 C          63.1332   89.5968   16.6785 C.ar    1  UNL1        0.1343
     40 S          62.8921   88.2071   17.1892 S.2     1  UNL1       -0.0652
     41 C          62.7861   83.7478   11.3346 C.3     1  UNL1        0.0460
     42 C          62.5553   82.4487   12.0483 C.ar    1  UNL1       -0.0205
     43 C          62.9458   81.1553   11.3968 C.ar    1  UNL1       -0.0042
     44 C          62.7150   79.8564   12.1105 C.ar    1  UNL1       -0.0003
     45 C          62.0937   79.8508   13.4757 C.ar    1  UNL1       -0.0000
     46 C          61.7031   81.1442   14.1273 C.ar    1  UNL1       -0.0003
     47 C          61.9339   82.4432   13.4136 C.ar    1  UNL1       -0.0042
     48 C          61.8005   90.0662   11.2533 C.3     1  UNL1        0.0459
     49 C          63.0441   90.8874   11.4239 C.ar    1  UNL1       -0.0205
     50 C          63.6089   91.6442   10.2584 C.ar    1  UNL1       -0.0042
     51 C          64.8525   92.4654   10.4290 C.ar    1  UNL1       -0.0003
     52 C          65.5313   92.5298   11.7650 C.ar    1  UNL1       -0.0000
     53 C          64.9665   91.7730   12.9306 C.ar    1  UNL1       -0.0003
     54 C          63.7229   90.9518   12.7600 C.ar    1  UNL1       -0.0042
@<TRIPOS>BOND
     1    21    22    1
     2    22    23    1
     3    22    16    1
     4    16    17   ar
     5    17    18   ar
     6    18    15    1
     7    15     7    1
     8     7     8   am
     9     8     9    2
    10     8    10   am
    11    10     6    1
    12     6    24    1
    13    24    25    1
    14     6     2    1
    15     2     3    2
    16     2     4   am
    17     4     1    1
    18     1    27    1
    19    27    28    1
    20    29    28    1
    21    29    41    1
    22    41    42    1
    23    42    43   ar
    24    43    44   ar
    25    44    45   ar
    26    45    46   ar
    27    46    47   ar
    28    29    30    1
    29    30    31   am
    30    31    32    2
    31    31    34    1
    32    34    35    1
    33    35    36    1
    34    36    37   ar
    35    37    38   ar
    36    38    39   ar
    37    39    40   ar
    38     1    48    1
    39    48    49    1
    40    49    50   ar
    41    50    51   ar
    42    51    52   ar
    43    52    53   ar
    44    53    54   ar
    45     7    12    1
    46    12    13    1
    47    13    14    1
    48    18    19   ar
    49    19    20   ar
    50    20    16   ar
    51    47    42   ar
    52    40    36   ar
    53    54    49   ar
    54    14    12    1
    55    10    11    1
    56    25    26    1
    57     4     5    1
    58    30    33    1
@<TRIPOS>MOLECULE
*****
 54 58 0 0 0
SMALL
GASTEIGER

@<TRIPOS>ATOM
      1 C          60.4785   88.2680    8.3480 C.3     1  UNL1        0.0760
      2 C          60.3384   89.4986   10.6319 C.2     1  UNL1        0.2429
      3 O          59.6221   88.3205   11.2227 O.2     1  UNL1       -0.2732
      4 N          60.7666   89.4723    9.1945 N.am    1  UNL1       -0.3042
      5 H          61.2367   90.2455    8.8068 H       1  UNL1        0.1494
      6 CA         60.6265   90.7029   11.4784 C.3     1  UNL1        0.1793
      7 N          64.4888   91.4065   12.0595 N.am    1  UNL1       -0.2601
      8 C          63.1599   91.2699   11.3773 C.2     1  UNL1        0.3046
      9 O          63.0356   91.5636    9.9115 O.2     1  UNL1       -0.2526
     10 N          61.9554   90.8395   12.1608 N.am    1  UNL1       -0.2805
     11 H          62.0369   90.6467   13.1227 H       1  UNL1        0.1514
     12 C          64.6130   91.1128   13.5252 C.3     1  UNL1        0.0773
     13 C          63.9771   90.9207   14.8700 C.3     1  UNL1        0.0216
     14 C          65.4643   90.7962   14.7190 C.3     1  UNL1        0.0216
     15 C          65.6933   91.8369   11.2761 C.3     1  UNL1        0.1412
     16 C          66.2219   95.3632    9.7427 C.ar    1  UNL1        0.0875
     17 N          66.0182   93.8851    9.5894 N.ar    1  UNL1       -0.2453
     18 C          65.9038   93.2882   10.9609 C.ar    1  UNL1        0.0858
     19 C          66.0367   94.3976   11.9617 C.ar    1  UNL1        0.0530
     20 S          66.2333   95.6801   11.2088 S.2     1  UNL1       -0.0705
     21 C          67.7537   96.8343    8.2463 C.3     1  UNL1        0.0069
     22 C          66.3854   96.3511    8.6259 C.3     1  UNL1        0.0465
     23 C          65.1805   96.8559    7.8887 C.3     1  UNL1        0.0069
     24 C          59.5858   91.7705   11.6427 C.3     1  UNL1        0.1661
     25 O          58.1300   91.4116   11.6009 O.3     1  UNL1       -0.3798
     26 H          57.9001   91.0961   10.7129 H       1  UNL1        0.2105
     27 C          61.3348   87.0426    8.4710 C.3     1  UNL1        0.0216
     28 C          61.0232   86.0117    9.5150 C.3     1  UNL1        0.0217
     29 C          62.0010   85.7448   10.6209 C.3     1  UNL1        0.0792
     30 N          62.5711   84.3693   10.8022 N.am    1  UNL1       -0.2720
     31 C          63.4571   83.7793    9.7453 C.2     1  UNL1        0.4019
     32 O          63.7730   84.5649    8.5071 O.2     1  UNL1       -0.2264
     33 H          62.3638   83.8537   11.6149 H       1  UNL1        0.1527
     34 O          64.0272   82.4038    9.9267 O.3     1  UNL1       -0.4291
     35 C          63.2310   81.3496   10.6370 C.3     1  UNL1        0.2447
     36 C          63.0896   81.3951   12.1296 C.ar    1  UNL1        0.0714
     37 C          64.2144   81.4050   13.1220 C.ar    1  UNL1        0.1053
     38 N          63.6185   81.4547   14.4977 N.ar    1  UNL1       -0.2350
     39 C          62.1254   81.4754   14.3555 C.ar    1  UNL1        0.1343
     40 S          61.7985   81.4385   12.8920 S.2     1  UNL1       -0.0652
     41 C          62.4086   86.8535   11.5453 C.3     1  UNL1        0.0460
     42 C          63.1326   86.5386   12.8208 C.ar    1  UNL1       -0.0205
     43 C          63.8622   87.6232   13.5565 C.ar    1  UNL1       -0.0042
     44 C          64.5861   87.3082   14.8319 C.ar    1  UNL1       -0.0003
     45 C          64.5804   85.9086   15.3716 C.ar    1  UNL1       -0.0000
     46 C          63.8508   84.8241   14.6358 C.ar    1  UNL1       -0.0003
     47 C          63.1269   85.1390   13.3604 C.ar    1  UNL1       -0.0042
     48 C          59.3340   88.2891    7.3785 C.3     1  UNL1        0.0459
     49 C          59.1566   89.4561    6.4530 C.ar    1  UNL1       -0.0205
     50 C          60.3548   90.1054    5.8265 C.ar    1  UNL1       -0.0042
     51 C          60.1774   91.2724    4.9009 C.ar    1  UNL1       -0.0003
     52 C          58.8017   91.7901    4.6018 C.ar    1  UNL1       -0.0000
     53 C          57.6034   91.1407    5.2284 C.ar    1  UNL1       -0.0003
     54 C          57.7808   89.9738    6.1539 C.ar    1  UNL1       -0.0042
@<TRIPOS>BOND
     1    21    22    1
     2    22    23    1
     3    22    16    1
     4    16    17   ar
     5    17    18   ar
     6    18    15    1
     7    15     7    1
     8     7     8   am
     9     8     9    2
    10     8    10   am
    11    10     6    1
    12     6    24    1
    13    24    25    1
    14     6     2    1
    15     2     3    2
    16     2     4   am
    17     4     1    1
    18     1    27    1
    19    27    28    1
    20    29    28    1
    21    29    41    1
    22    41    42    1
    23    42    43   ar
    24    43    44   ar
    25    44    45   ar
    26    45    46   ar
    27    46    47   ar
    28    29    30    1
    29    30    31   am
    30    31    32    2
    31    31    34    1
    32    34    35    1
    33    35    36    1
    34    36    37   ar
    35    37    38   ar
    36    38    39   ar
    37    39    40   ar
    38     1    48    1
    39    48    49    1
    40    49    50   ar
    41    50    51   ar
    42    51    52   ar
    43    52    53   ar
    44    53    54   ar
    45     7    12    1
    46    12    13    1
    47    13    14    1
    48    18    19   ar
    49    19    20   ar
    50    20    16   ar
    51    47    42   ar
    52    40    36   ar
    53    54    49   ar
    54    14    12    1
    55    10    11    1
    56    25    26    1
    57     4     5    1
    58    30    33    1
