@<TRIPOS>MOLECULE
*****
 32 36 0 0 0
SMALL
GASTEIGER

@<TRIPOS>ATOM
      1 C          62.8593   86.8497   11.8754 C.3     1  UNL1        0.1275
      2 C          63.2426   88.1042   12.6030 C.2     1  UNL1        0.0258
      3 C          64.0671   87.7156   13.7943 C.2     1  UNL1        0.1519
      4 N          64.4505   88.9701   14.5218 N.2     1  UNL1       -0.1483
      5 N          63.8629   90.1339   13.7802 N.2     1  UNL1       -0.1721
      6 C          63.1164   89.5988   12.5943 C.3     1  UNL1        0.1467
      7 C          64.1933   86.2209   13.8030 C.2     1  UNL1        0.2722
      8 O          64.9357   85.4047   14.8192 O.2     1  UNL1       -0.2679
      9 N          63.4469   85.6857   12.6171 N.am    1  UNL1       -0.2479
     10 C          60.6178   87.2692   10.6303 C.ar    1  UNL1        0.1366
     11 C          59.7919   87.1921    9.3806 C.ar    1  UNL1        0.0366
     12 C          60.3815   86.6186    8.1261 C.ar    1  UNL1        0.0031
     13 C          61.7969   86.1221    8.1215 C.ar    1  UNL1       -0.0001
     14 C          62.6228   86.1992    9.3713 C.ar    1  UNL1        0.0007
     15 C          62.0333   86.7727   10.6257 C.ar    1  UNL1        0.0340
     16 C          58.8181   88.7255   11.8091 C.3     1  UNL1        0.2525
     17 O          60.0284   87.8427   11.8847 O.3     1  UNL1       -0.4717
     18 C          63.3117   84.2405   12.2392 C.ar    1  UNL1        0.0547
     19 C          64.0296   83.7101   11.0337 C.ar    1  UNL1        0.0149
     20 C          63.8945   82.2649   10.6558 C.ar    1  UNL1        0.0013
     21 C          63.0413   81.3498   11.4835 C.ar    1  UNL1        0.0006
     22 C          62.3233   81.8801   12.6890 C.ar    1  UNL1        0.0013
     23 C          62.4585   83.3255   13.0668 C.ar    1  UNL1        0.0149
     24 C          62.9061   79.9045   11.1055 C.ar    1  UNL1        0.0070
     25 C          63.0152   79.3418    9.7194 C.ar    1  UNL1        0.0075
     26 C          62.8146   77.8577    9.8046 C.ar    1  UNL1        0.0355
     27 S          62.5815   77.5033   11.2433 S.2     1  UNL1       -0.0859
     28 C          62.6381   78.7683   12.0474 C.ar    1  UNL1        0.0354
     29 C          62.3741   90.4151   11.5781 C.3     1  UNL1        0.0262
     30 C          61.1998   90.5037   12.5071 C.3     1  UNL1        0.0023
     31 C          63.5484   90.3264   10.6490 C.3     1  UNL1        0.0023
     32 C          61.6317   91.2313   10.5619 C.3     1  UNL1        0.0023
@<TRIPOS>BOND
     1    16    17    1
     2    17    10    1
     3    10    11   ar
     4    11    12   ar
     5    12    13   ar
     6    13    14   ar
     7    14    15   ar
     8    15     1    1
     9     1     2    1
    10     2     3    2
    11     3     4    1
    12     4     5    2
    13     5     6    1
    14     6    29    1
    15    29    30    1
    16    29    31    1
    17    29    32    1
    18     3     7    1
    19     7     8    2
    20     7     9   am
    21     9    18    1
    22    18    19   ar
    23    19    20   ar
    24    20    21   ar
    25    21    24    1
    26    24    25   ar
    27    25    26   ar
    28    26    27   ar
    29    27    28   ar
    30    21    22   ar
    31    22    23   ar
    32    15    10   ar
    33     9     1    1
    34    23    18   ar
    35     6     2    1
    36    28    24   ar
@<TRIPOS>MOLECULE
*****
 32 36 0 0 0
SMALL
GASTEIGER

@<TRIPOS>ATOM
      1 C          44.7316   78.3435   18.0808 C.3     1  UNL1        0.1275
      2 C          44.5481   79.8323   18.0854 C.2     1  UNL1        0.0258
      3 C          44.1173   80.2505   16.7109 C.2     1  UNL1        0.1519
      4 N          43.9338   81.7393   16.7155 N.2     1  UNL1       -0.1483
      5 N          44.2511   82.2411   18.0930 N.2     1  UNL1       -0.1721
      6 C          44.6308   81.0625   18.9397 C.3     1  UNL1        0.1467
      7 C          44.0346   79.0203   15.8566 C.2     1  UNL1        0.2722
      8 O          43.6413   78.9763   14.4098 O.2     1  UNL1       -0.2679
      9 N          44.4142   77.8417   16.7033 N.am    1  UNL1       -0.2479
     10 C          46.6109   77.2005   19.4636 C.ar    1  UNL1        0.1366
     11 C          47.0370   76.3610   20.6313 C.ar    1  UNL1        0.0366
     12 C          46.0098   75.8251   21.5842 C.ar    1  UNL1        0.0031
     13 C          44.5567   76.1286   21.3692 C.ar    1  UNL1       -0.0001
     14 C          44.1306   76.9681   20.2014 C.ar    1  UNL1        0.0007
     15 C          45.1577   77.5041   19.2486 C.ar    1  UNL1        0.0340
     16 C          48.1241   79.1488   18.6486 C.3     1  UNL1        0.2525
     17 O          47.6379   77.7365   18.5108 O.3     1  UNL1       -0.4717
     18 C          44.4672   76.4123   16.2518 C.ar    1  UNL1        0.0547
     19 C          45.3545   75.4336   16.9624 C.ar    1  UNL1        0.0149
     20 C          45.4075   74.0042   16.5109 C.ar    1  UNL1        0.0013
     21 C          44.5732   73.5534   15.3486 C.ar    1  UNL1        0.0006
     22 C          43.6860   74.5320   14.6379 C.ar    1  UNL1        0.0013
     23 C          43.6330   75.9615   15.0895 C.ar    1  UNL1        0.0149
     24 C          44.6262   72.1239   14.8971 C.ar    1  UNL1        0.0070
     25 C          45.6635   71.1136   15.2886 C.ar    1  UNL1        0.0075
     26 C          45.3297   69.8191   14.6083 C.ar    1  UNL1        0.0355
     27 S          44.0861   70.0294   13.7964 S.2     1  UNL1       -0.0859
     28 C          43.6513   71.4539   13.9749 C.ar    1  UNL1        0.0354
     29 C          45.0241   81.1065   20.3865 C.3     1  UNL1        0.0262
     30 C          46.3599   81.6731   20.0062 C.3     1  UNL1        0.0023
     31 C          43.6883   80.5399   20.7668 C.3     1  UNL1        0.0023
     32 C          45.4174   81.1505   21.8333 C.3     1  UNL1        0.0023
@<TRIPOS>BOND
     1    16    17    1
     2    17    10    1
     3    10    11   ar
     4    11    12   ar
     5    12    13   ar
     6    13    14   ar
     7    14    15   ar
     8    15     1    1
     9     1     2    1
    10     2     3    2
    11     3     4    1
    12     4     5    2
    13     5     6    1
    14     6    29    1
    15    29    30    1
    16    29    31    1
    17    29    32    1
    18     3     7    1
    19     7     8    2
    20     7     9   am
    21     9    18    1
    22    18    19   ar
    23    19    20   ar
    24    20    21   ar
    25    21    24    1
    26    24    25   ar
    27    25    26   ar
    28    26    27   ar
    29    27    28   ar
    30    21    22   ar
    31    22    23   ar
    32    15    10   ar
    33     9     1    1
    34    23    18   ar
    35     6     2    1
    36    28    24   ar
@<TRIPOS>MOLECULE
*****
 32 36 0 0 0
SMALL
GASTEIGER

@<TRIPOS>ATOM
      1 C          63.0212   87.8908   12.3006 C.3     1  UNL1        0.1275
      2 C          63.6043   89.2307   12.6393 C.2     1  UNL1        0.0258
      3 C          64.3168   89.1073   13.9535 C.2     1  UNL1        0.1519
      4 N          64.8999   90.4472   14.2922 N.2     1  UNL1       -0.1483
      5 N          64.5478   91.3986   13.1873 N.2     1  UNL1       -0.1721
      6 C          63.7471   90.6468   12.1657 C.3     1  UNL1        0.1467
      7 C          64.1741   87.6912   14.4270 C.2     1  UNL1        0.2722
      8 O          64.7338   87.1262   15.6988 O.2     1  UNL1       -0.2679
      9 N          63.3734   86.9393   13.4055 N.am    1  UNL1       -0.2479
     10 C          60.7384   87.7554   11.0675 C.ar    1  UNL1        0.1366
     11 C          59.9428   87.4250    9.8395 C.ar    1  UNL1        0.0366
     12 C          60.6346   86.8995    8.6166 C.ar    1  UNL1        0.0031
     13 C          62.1218   86.7045    8.6218 C.ar    1  UNL1       -0.0001
     14 C          62.9174   87.0349    9.8497 C.ar    1  UNL1        0.0007
     15 C          62.2257   87.5604   11.0726 C.ar    1  UNL1        0.0340
     16 C          58.8119   89.1209   12.1508 C.3     1  UNL1        0.2525
     17 O          60.0467   88.2809   12.2904 O.3     1  UNL1       -0.4717
     18 C          62.9918   85.4905   13.4764 C.ar    1  UNL1        0.0547
     19 C          62.6142   84.8778   14.7925 C.ar    1  UNL1        0.0149
     20 C          62.2326   83.4289   14.8634 C.ar    1  UNL1        0.0013
     21 C          62.2286   82.5926   13.6181 C.ar    1  UNL1        0.0006
     22 C          62.6061   83.2052   12.3020 C.ar    1  UNL1        0.0013
     23 C          62.9877   84.6541   12.2312 C.ar    1  UNL1        0.0149
     24 C          61.8470   81.1437   13.6891 C.ar    1  UNL1        0.0070
     25 C          60.5135   80.6029   14.1127 C.ar    1  UNL1        0.0075
     26 C          60.5742   79.1062   14.0343 C.ar    1  UNL1        0.0355
     27 S          61.9452   78.7220   13.5622 S.2     1  UNL1       -0.0859
     28 C          62.7318   79.9812   13.3488 C.ar    1  UNL1        0.0354
     29 C          63.1874   91.2119   10.8940 C.3     1  UNL1        0.0262
     30 C          61.8078   90.8064   11.3209 C.3     1  UNL1        0.0023
     31 C          64.5670   91.6173   10.4670 C.3     1  UNL1        0.0023
     32 C          62.6277   91.7769    9.6222 C.3     1  UNL1        0.0023
@<TRIPOS>BOND
     1    16    17    1
     2    17    10    1
     3    10    11   ar
     4    11    12   ar
     5    12    13   ar
     6    13    14   ar
     7    14    15   ar
     8    15     1    1
     9     1     2    1
    10     2     3    2
    11     3     4    1
    12     4     5    2
    13     5     6    1
    14     6    29    1
    15    29    30    1
    16    29    31    1
    17    29    32    1
    18     3     7    1
    19     7     8    2
    20     7     9   am
    21     9    18    1
    22    18    19   ar
    23    19    20   ar
    24    20    21   ar
    25    21    24    1
    26    24    25   ar
    27    25    26   ar
    28    26    27   ar
    29    27    28   ar
    30    21    22   ar
    31    22    23   ar
    32    15    10   ar
    33     9     1    1
    34    23    18   ar
    35     6     2    1
    36    28    24   ar
@<TRIPOS>MOLECULE
*****
 32 36 0 0 0
SMALL
GASTEIGER

@<TRIPOS>ATOM
      1 C          63.1551   85.2013   13.4135 C.3     1  UNL1        0.1275
      2 C          62.8442   84.0906   14.3724 C.2     1  UNL1        0.0258
      3 C          62.9307   84.6423   15.7646 C.2     1  UNL1        0.1519
      4 N          62.6198   83.5316   16.7236 N.2     1  UNL1       -0.1483
      5 N          62.3413   82.2933   15.9241 N.2     1  UNL1       -0.1721
      6 C          62.4800   82.6388   14.4710 C.3     1  UNL1        0.1467
      7 C          63.2949   86.0940   15.6661 C.2     1  UNL1        0.2722
      8 O          63.4868   87.0351   16.8183 O.2     1  UNL1       -0.2679
      9 N          63.4337   86.4396   14.2130 N.am    1  UNL1       -0.2479
     10 C          62.1502   85.8052   11.0950 C.ar    1  UNL1        0.1366
     11 C          62.1777   85.6968    9.5991 C.ar    1  UNL1        0.0366
     12 C          63.2376   84.8760    8.9260 C.ar    1  UNL1        0.0031
     13 C          64.2699   84.1637    9.7487 C.ar    1  UNL1       -0.0001
     14 C          64.2424   84.2722   11.2445 C.ar    1  UNL1        0.0007
     15 C          63.1826   85.0929   11.9177 C.ar    1  UNL1        0.0340
     16 C          60.2654   87.5887   10.9665 C.3     1  UNL1        0.2525
     17 O          61.0904   86.6260   11.7681 O.3     1  UNL1       -0.4717
     18 C          63.7886   87.7867   13.6571 C.ar    1  UNL1        0.0547
     19 C          63.2725   88.2025   12.3113 C.ar    1  UNL1        0.0149
     20 C          63.6274   89.5496   11.7554 C.ar    1  UNL1        0.0013
     21 C          64.4985   90.4812   12.5452 C.ar    1  UNL1        0.0006
     22 C          65.0145   90.0655   13.8909 C.ar    1  UNL1        0.0013
     23 C          64.6595   88.7183   14.4468 C.ar    1  UNL1        0.0149
     24 C          64.8534   91.8284   11.9892 C.ar    1  UNL1        0.0070
     25 C          64.4687   92.3536   10.6379 C.ar    1  UNL1        0.0075
     26 C          65.0329   93.7367   10.5004 C.ar    1  UNL1        0.0355
     27 S          65.7661   94.0662   11.7668 S.2     1  UNL1       -0.0859
     28 C          65.6552   92.8868   12.6870 C.ar    1  UNL1        0.0354
     29 C          62.2881   81.6978   13.3188 C.3     1  UNL1        0.0262
     30 C          63.7288   81.8697   12.9384 C.3     1  UNL1        0.0023
     31 C          60.8474   81.5258   13.6992 C.3     1  UNL1        0.0023
     32 C          62.0962   80.7567   12.1666 C.3     1  UNL1        0.0023
@<TRIPOS>BOND
     1    16    17    1
     2    17    10    1
     3    10    11   ar
     4    11    12   ar
     5    12    13   ar
     6    13    14   ar
     7    14    15   ar
     8    15     1    1
     9     1     2    1
    10     2     3    2
    11     3     4    1
    12     4     5    2
    13     5     6    1
    14     6    29    1
    15    29    30    1
    16    29    31    1
    17    29    32    1
    18     3     7    1
    19     7     8    2
    20     7     9   am
    21     9    18    1
    22    18    19   ar
    23    19    20   ar
    24    20    21   ar
    25    21    24    1
    26    24    25   ar
    27    25    26   ar
    28    26    27   ar
    29    27    28   ar
    30    21    22   ar
    31    22    23   ar
    32    15    10   ar
    33     9     1    1
    34    23    18   ar
    35     6     2    1
    36    28    24   ar
@<TRIPOS>MOLECULE
*****
 32 36 0 0 0
SMALL
GASTEIGER

@<TRIPOS>ATOM
      1 C          62.5007   86.9196   11.6343 C.3     1  UNL1        0.1275
      2 C          62.8800   88.2118   12.2948 C.2     1  UNL1        0.0258
      3 C          63.8384   87.9006   13.4059 C.2     1  UNL1        0.1519
      4 N          64.2178   89.1928   14.0665 N.2     1  UNL1       -0.1483
      5 N          63.4937   90.3026   13.3637 N.2     1  UNL1       -0.1721
      6 C          62.6669   89.6964   12.2687 C.3     1  UNL1        0.1467
      7 C          64.0515   86.4160   13.4320 C.2     1  UNL1        0.2722
      8 O          64.9361   85.6689   14.3856 O.2     1  UNL1       -0.2679
      9 N          63.2248   85.8097   12.3371 N.am    1  UNL1       -0.2479
     10 C          62.0538   86.1759    9.1853 C.ar    1  UNL1        0.1366
     11 C          61.1152   86.0208    8.0256 C.ar    1  UNL1        0.0366
     12 C          59.6850   86.4543    8.1549 C.ar    1  UNL1        0.0031
     13 C          59.1935   87.0429    9.4441 C.ar    1  UNL1       -0.0001
     14 C          60.1320   87.1980   10.6038 C.ar    1  UNL1        0.0007
     15 C          61.5621   86.7645   10.4745 C.ar    1  UNL1        0.0340
     16 C          63.9158   84.9247    7.8750 C.3     1  UNL1        0.2525
     17 O          63.4839   85.7423    9.0560 O.3     1  UNL1       -0.4717
     18 C          63.1374   84.3500   12.0036 C.ar    1  UNL1        0.0547
     19 C          63.9221   83.7955   10.8516 C.ar    1  UNL1        0.0149
     20 C          63.8347   82.3357   10.5181 C.ar    1  UNL1        0.0013
     21 C          62.9626   81.4302   11.3365 C.ar    1  UNL1        0.0006
     22 C          62.1779   81.9846   12.4884 C.ar    1  UNL1        0.0013
     23 C          62.2653   83.4445   12.8219 C.ar    1  UNL1        0.0149
     24 C          62.8752   79.9704   11.0029 C.ar    1  UNL1        0.0070
     25 C          63.0524   79.3649    9.6420 C.ar    1  UNL1        0.0075
     26 C          62.8820   77.8801    9.7696 C.ar    1  UNL1        0.0355
     27 S          62.5996   77.5680   11.2094 S.2     1  UNL1       -0.0859
     28 C          62.5954   78.8599   11.9716 C.ar    1  UNL1        0.0354
     29 C          61.7824   90.4435   11.3151 C.3     1  UNL1        0.0262
     30 C          60.5853   90.0860   12.1453 C.3     1  UNL1        0.0023
     31 C          62.9794   90.8011   10.4849 C.3     1  UNL1        0.0023
     32 C          60.8978   91.1907   10.3615 C.3     1  UNL1        0.0023
@<TRIPOS>BOND
     1    16    17    1
     2    17    10    1
     3    10    11   ar
     4    11    12   ar
     5    12    13   ar
     6    13    14   ar
     7    14    15   ar
     8    15     1    1
     9     1     2    1
    10     2     3    2
    11     3     4    1
    12     4     5    2
    13     5     6    1
    14     6    29    1
    15    29    30    1
    16    29    31    1
    17    29    32    1
    18     3     7    1
    19     7     8    2
    20     7     9   am
    21     9    18    1
    22    18    19   ar
    23    19    20   ar
    24    20    21   ar
    25    21    24    1
    26    24    25   ar
    27    25    26   ar
    28    26    27   ar
    29    27    28   ar
    30    21    22   ar
    31    22    23   ar
    32    15    10   ar
    33     9     1    1
    34    23    18   ar
    35     6     2    1
    36    28    24   ar
