@<TRIPOS>MOLECULE
*****
 32 35 0 0 0
SMALL
GASTEIGER

@<TRIPOS>ATOM
      1 C          63.5354   90.7592   11.6765 C.2     1  UNL1        0.2525
      2 O          62.8140   91.4393   10.5508 O.2     1  UNL1       -0.2698
      3 N          63.3394   89.2912   11.9146 N.am    1  UNL1       -0.2660
      4 C          63.9897   88.4787   12.9948 C.3     1  UNL1        0.1236
      5 C          63.5109   87.0634   12.8621 C.ar    1  UNL1        0.0338
      6 C          63.6169   85.6865   13.4477 C.ar    1  UNL1        0.0991
      7 N          62.7363   84.7732   12.6473 N.ar    1  UNL1       -0.2265
      8 N          62.0861   85.5858   11.5669 N.ar    1  UNL1       -0.1679
      9 C          62.5648   87.0012   11.6997 C.ar    1  UNL1        0.0981
     10 C          62.4588   88.3781   11.1141 C.3     1  UNL1        0.1414
     11 C          62.5403   83.3054   12.8853 C.ar    1  UNL1        0.1102
     12 C          61.9603   82.8269   14.1832 C.ar    1  UNL1        0.0214
     13 C          61.7643   81.3589   14.4214 C.ar    1  UNL1        0.0017
     14 C          62.1484   80.3694   13.3615 C.ar    1  UNL1        0.0024
     15 C          62.7284   80.8479   12.0635 C.ar    1  UNL1        0.0312
     16 C          62.9244   82.3158   11.8254 C.ar    1  UNL1        0.1577
     17 F          63.5044   82.7942   10.5275 F       1  UNL1       -0.2026
     18 C          65.5745   92.3431   11.9657 C.ar    1  UNL1        0.1426
     19 C          66.4917   93.1310   12.8533 C.ar    1  UNL1        0.0384
     20 C          66.2873   93.1228   14.3393 C.ar    1  UNL1        0.0215
     21 C          65.1656   92.3267   14.9377 C.ar    1  UNL1        0.1061
     22 C          64.2483   91.5389   14.0500 C.ar    1  UNL1        0.0259
     23 C          64.4527   91.5470   12.5640 C.ar    1  UNL1        0.0887
     24 S          64.9612   92.3186   16.4237 S.O2    1  UNL1        0.0105
     25 C          64.7569   92.3104   17.9096 C.3     1  UNL1        0.1816
     26 O          63.5420   91.8751   16.2260 O.2     1  UNL1       -0.1686
     27 O          66.3805   92.7621   16.6213 O.2     1  UNL1       -0.1686
     28 O          65.7788   92.3513   10.4797 O.3     1  UNL1       -0.4824
     29 C          65.8850   94.3943    9.9186 C.3     1  UNL1        0.0436
     30 C          66.8309   93.2311    9.8721 C.3     1  UNL1        0.1334
     31 C          67.7768   92.0678    9.8257 C.3     1  UNL1        0.0436
     32 C          67.8829   94.1108    9.2646 C.3     1  UNL1        0.0436
@<TRIPOS>BOND
     1    29    30    1
     2    30    31    1
     3    30    32    1
     4    30    28    1
     5    28    18    1
     6    18    19   ar
     7    19    20   ar
     8    20    21   ar
     9    21    24    1
    10    24    25    1
    11    24    26    2
    12    24    27    2
    13    21    22   ar
    14    22    23   ar
    15    23     1    1
    16     1     2    2
    17     1     3   am
    18     3     4    1
    19     4     5    1
    20     5     6   ar
    21     6     7   ar
    22     7    11    1
    23    11    12   ar
    24    12    13   ar
    25    13    14   ar
    26    14    15   ar
    27    15    16   ar
    28    16    17    1
    29     7     8   ar
    30     8     9   ar
    31     9    10    1
    32    23    18   ar
    33    10     3    1
    34     9     5   ar
    35    16    11   ar
@<TRIPOS>MOLECULE
*****
 32 35 0 0 0
SMALL
GASTEIGER

@<TRIPOS>ATOM
      1 C          64.0370   90.2901   15.6529 C.2     1  UNL1        0.2525
      2 O          63.3985   90.8954   16.8678 O.2     1  UNL1       -0.2698
      3 N          63.8028   88.8455   15.3236 N.am    1  UNL1       -0.2660
      4 C          64.3710   88.1057   14.1489 C.3     1  UNL1        0.1236
      5 C          63.8787   86.6901   14.2105 C.ar    1  UNL1        0.0338
      6 C          63.9256   85.3580   13.5225 C.ar    1  UNL1        0.0991
      7 N          63.0821   84.3996   14.3100 N.ar    1  UNL1       -0.2265
      8 N          62.5139   85.1395   15.4847 N.ar    1  UNL1       -0.1679
      9 C          63.0063   86.5551   15.4232 C.ar    1  UNL1        0.0981
     10 C          62.9594   87.8872   16.1111 C.3     1  UNL1        0.1414
     11 C          62.8480   82.9552   13.9807 C.ar    1  UNL1        0.1102
     12 C          61.6586   82.2395   14.5492 C.ar    1  UNL1        0.0214
     13 C          61.4243   80.7950   14.2200 C.ar    1  UNL1        0.0017
     14 C          62.3796   80.0660   13.3221 C.ar    1  UNL1        0.0024
     15 C          63.5691   80.7817   12.7536 C.ar    1  UNL1        0.0312
     16 C          63.8032   82.2261   13.0829 C.ar    1  UNL1        0.1577
     17 F          64.9927   82.9417   12.5144 F       1  UNL1       -0.2026
     18 C          64.4321   91.5255   13.4017 C.ar    1  UNL1        0.1426
     19 C          65.3047   92.3647   12.5162 C.ar    1  UNL1        0.0384
     20 C          66.6550   92.8078   12.9963 C.ar    1  UNL1        0.0215
     21 C          67.1326   92.4116   14.3620 C.ar    1  UNL1        0.1061
     22 C          66.2599   91.5724   15.2475 C.ar    1  UNL1        0.0259
     23 C          64.9096   91.1293   14.7674 C.ar    1  UNL1        0.0887
     24 S          68.4829   92.8547   14.8421 S.O2    1  UNL1        0.0105
     25 C          69.8331   93.2978   15.3222 C.3     1  UNL1        0.1816
     26 O          69.1218   92.1889   13.6595 O.2     1  UNL1       -0.1686
     27 O          67.8438   93.5206   16.0246 O.2     1  UNL1       -0.1686
     28 O          63.0818   91.0824   12.9216 O.3     1  UNL1       -0.4824
     29 C          63.7653   91.5273   10.9633 C.3     1  UNL1        0.0436
     30 C          62.9395   90.4352   11.5759 C.3     1  UNL1        0.1334
     31 C          62.1136   89.3431   12.1886 C.3     1  UNL1        0.0436
     32 C          62.7971   89.7880   10.2303 C.3     1  UNL1        0.0436
@<TRIPOS>BOND
     1    29    30    1
     2    30    31    1
     3    30    32    1
     4    30    28    1
     5    28    18    1
     6    18    19   ar
     7    19    20   ar
     8    20    21   ar
     9    21    24    1
    10    24    25    1
    11    24    26    2
    12    24    27    2
    13    21    22   ar
    14    22    23   ar
    15    23     1    1
    16     1     2    2
    17     1     3   am
    18     3     4    1
    19     4     5    1
    20     5     6   ar
    21     6     7   ar
    22     7    11    1
    23    11    12   ar
    24    12    13   ar
    25    13    14   ar
    26    14    15   ar
    27    15    16   ar
    28    16    17    1
    29     7     8   ar
    30     8     9   ar
    31     9    10    1
    32    23    18   ar
    33    10     3    1
    34     9     5   ar
    35    16    11   ar
@<TRIPOS>MOLECULE
*****
 32 35 0 0 0
SMALL
GASTEIGER

@<TRIPOS>ATOM
      1 C          63.7041   88.5063   15.3096 C.2     1  UNL1        0.2525
      2 O          63.3792   88.6939   16.7619 O.2     1  UNL1       -0.2698
      3 N          63.5650   87.1525   14.6787 N.am    1  UNL1       -0.2660
      4 C          63.8518   86.8139   13.2458 C.3     1  UNL1        0.1236
      5 C          63.5787   85.3518   13.0515 C.ar    1  UNL1        0.0338
      6 C          63.5871   84.2389   12.0459 C.ar    1  UNL1        0.0991
      7 N          63.1368   82.9861   12.7371 N.ar    1  UNL1       -0.2265
      8 N          62.8500   83.3248   14.1700 N.ar    1  UNL1       -0.1679
      9 C          63.1231   84.7868   14.3643 C.ar    1  UNL1        0.0981
     10 C          63.1147   85.8998   15.3699 C.3     1  UNL1        0.1414
     11 C          62.9977   81.6324   12.1062 C.ar    1  UNL1        0.1102
     12 C          63.2348   81.4626   10.6349 C.ar    1  UNL1        0.0214
     13 C          63.0957   80.1089   10.0039 C.ar    1  UNL1        0.0017
     14 C          62.7194   78.9249   10.8444 C.ar    1  UNL1        0.0024
     15 C          62.4823   79.0946   12.3159 C.ar    1  UNL1        0.0312
     16 C          62.6214   80.4483   12.9467 C.ar    1  UNL1        0.1577
     17 F          62.3843   80.6180   14.4181 F       1  UNL1       -0.2026
     18 C          63.3692   90.1178   13.2994 C.ar    1  UNL1        0.1426
     19 C          63.8334   91.2840   12.4780 C.ar    1  UNL1        0.0384
     20 C          65.0965   92.0047   12.8454 C.ar    1  UNL1        0.0215
     21 C          65.8956   91.5594   14.0342 C.ar    1  UNL1        0.1061
     22 C          65.4314   90.3932   14.8556 C.ar    1  UNL1        0.0259
     23 C          64.1682   89.6724   14.4882 C.ar    1  UNL1        0.0887
     24 S          67.1587   92.2802   14.4016 S.O2    1  UNL1        0.0105
     25 C          68.4218   93.0009   14.7690 C.3     1  UNL1        0.1816
     26 O          67.6384   92.1613   12.9854 O.2     1  UNL1       -0.1686
     27 O          66.6789   92.3990   15.8179 O.2     1  UNL1       -0.1686
     28 O          62.1061   89.3971   12.9320 O.3     1  UNL1       -0.4824
     29 C          62.7139   89.0487   10.9297 C.3     1  UNL1        0.0436
     30 C          61.4861   89.6105   11.5829 C.3     1  UNL1        0.1334
     31 C          60.2582   90.1723   12.2362 C.3     1  UNL1        0.0436
     32 C          60.8660   89.8239   10.2339 C.3     1  UNL1        0.0436
@<TRIPOS>BOND
     1    29    30    1
     2    30    31    1
     3    30    32    1
     4    30    28    1
     5    28    18    1
     6    18    19   ar
     7    19    20   ar
     8    20    21   ar
     9    21    24    1
    10    24    25    1
    11    24    26    2
    12    24    27    2
    13    21    22   ar
    14    22    23   ar
    15    23     1    1
    16     1     2    2
    17     1     3   am
    18     3     4    1
    19     4     5    1
    20     5     6   ar
    21     6     7   ar
    22     7    11    1
    23    11    12   ar
    24    12    13   ar
    25    13    14   ar
    26    14    15   ar
    27    15    16   ar
    28    16    17    1
    29     7     8   ar
    30     8     9   ar
    31     9    10    1
    32    23    18   ar
    33    10     3    1
    34     9     5   ar
    35    16    11   ar
@<TRIPOS>MOLECULE
*****
 32 35 0 0 0
SMALL
GASTEIGER

@<TRIPOS>ATOM
      1 C          64.2849   89.9758   13.8658 C.2     1  UNL1        0.2525
      2 O          64.6586   90.5862   15.1840 O.2     1  UNL1       -0.2698
      3 N          63.9705   88.5116   13.7795 N.am    1  UNL1       -0.2660
      4 C          63.5834   87.7647   12.5376 C.3     1  UNL1        0.1236
      5 C          63.3617   86.3288   12.9106 C.ar    1  UNL1        0.0338
      6 C          62.9854   84.9797   12.3736 C.ar    1  UNL1        0.0991
      7 N          63.0030   84.0054   13.5140 N.ar    1  UNL1       -0.2265
      8 N          63.3901   84.7524   14.7559 N.ar    1  UNL1       -0.1679
      9 C          63.6118   86.1883   14.3829 C.ar    1  UNL1        0.0981
     10 C          63.9881   87.5374   14.9199 C.3     1  UNL1        0.1414
     11 C          62.6886   82.5413   13.4277 C.ar    1  UNL1        0.1102
     12 C          61.7047   81.9281   14.3794 C.ar    1  UNL1        0.0214
     13 C          61.3903   80.4639   14.2932 C.ar    1  UNL1        0.0017
     14 C          62.0599   79.6130   13.2552 C.ar    1  UNL1        0.0024
     15 C          63.0439   80.2262   12.3034 C.ar    1  UNL1        0.0312
     16 C          63.3582   81.6903   12.3897 C.ar    1  UNL1        0.1577
     17 F          64.3422   82.3035   11.4380 F       1  UNL1       -0.2026
     18 C          63.0675   90.7030   11.6887 C.ar    1  UNL1        0.1426
     19 C          63.0082   91.5567   10.4569 C.ar    1  UNL1        0.0384
     20 C          64.1067   92.5370   10.1701 C.ar    1  UNL1        0.0215
     21 C          65.2646   92.6636   11.1152 C.ar    1  UNL1        0.1061
     22 C          65.3239   91.8098   12.3471 C.ar    1  UNL1        0.0259
     23 C          64.2254   90.8295   12.6339 C.ar    1  UNL1        0.0887
     24 S          66.3631   93.6439   10.8284 S.O2    1  UNL1        0.0105
     25 C          67.4616   94.6243   10.5416 C.3     1  UNL1        0.1816
     26 O          67.3822   92.6204   11.2332 O.2     1  UNL1       -0.1686
     27 O          65.3439   94.6674   10.4235 O.2     1  UNL1       -0.1686
     28 O          61.9690   89.7227   11.9755 O.3     1  UNL1       -0.4824
     29 C          59.9135   90.1785   11.7166 C.3     1  UNL1        0.0436
     30 C          60.9398   89.4216   10.9267 C.3     1  UNL1        0.1334
     31 C          61.9661   88.6646   10.1369 C.3     1  UNL1        0.0436
     32 C          59.9106   89.1205    9.8780 C.3     1  UNL1        0.0436
@<TRIPOS>BOND
     1    29    30    1
     2    30    31    1
     3    30    32    1
     4    30    28    1
     5    28    18    1
     6    18    19   ar
     7    19    20   ar
     8    20    21   ar
     9    21    24    1
    10    24    25    1
    11    24    26    2
    12    24    27    2
    13    21    22   ar
    14    22    23   ar
    15    23     1    1
    16     1     2    2
    17     1     3   am
    18     3     4    1
    19     4     5    1
    20     5     6   ar
    21     6     7   ar
    22     7    11    1
    23    11    12   ar
    24    12    13   ar
    25    13    14   ar
    26    14    15   ar
    27    15    16   ar
    28    16    17    1
    29     7     8   ar
    30     8     9   ar
    31     9    10    1
    32    23    18   ar
    33    10     3    1
    34     9     5   ar
    35    16    11   ar
@<TRIPOS>MOLECULE
*****
 32 35 0 0 0
SMALL
GASTEIGER

@<TRIPOS>ATOM
      1 C          62.5477   90.1724   11.2320 C.2     1  UNL1        0.2525
      2 O          61.4998   90.7940   10.3571 O.2     1  UNL1       -0.2698
      3 N          62.5432   88.6916   11.4713 N.am    1  UNL1       -0.2660
      4 C          63.5217   87.9323   12.3175 C.3     1  UNL1        0.1236
      5 C          63.1426   86.4816   12.2756 C.ar    1  UNL1        0.0338
      6 C          63.5130   85.1157   12.7727 C.ar    1  UNL1        0.0991
      7 N          62.5293   84.1342   12.2078 N.ar    1  UNL1       -0.2265
      8 N          61.5508   84.8936   11.3616 N.ar    1  UNL1       -0.1679
      9 C          61.9299   86.3443   11.4035 C.ar    1  UNL1        0.0981
     10 C          61.5595   87.7103   10.9064 C.3     1  UNL1        0.1414
     11 C          62.5248   82.6535   12.4471 C.ar    1  UNL1        0.1102
     12 C          62.9043   81.7139   11.3412 C.ar    1  UNL1        0.0214
     13 C          62.8998   80.2331   11.5804 C.ar    1  UNL1        0.0017
     14 C          62.5157   79.6919   12.9256 C.ar    1  UNL1        0.0024
     15 C          62.1362   80.6316   14.0316 C.ar    1  UNL1        0.0312
     16 C          62.1407   82.1123   13.7924 C.ar    1  UNL1        0.1577
     17 F          61.7612   83.0519   14.8983 F       1  UNL1       -0.2026
     18 C          63.6989   91.1147   13.3621 C.ar    1  UNL1        0.1426
     19 C          64.7514   91.9740   13.9976 C.ar    1  UNL1        0.0384
     20 C          65.7052   92.7502   13.1387 C.ar    1  UNL1        0.0215
     21 C          65.6065   92.6673   11.6443 C.ar    1  UNL1        0.1061
     22 C          64.5540   91.8079   11.0088 C.ar    1  UNL1        0.0259
     23 C          63.6002   91.0317   11.8676 C.ar    1  UNL1        0.0887
     24 S          66.5603   93.4435   10.7854 S.O2    1  UNL1        0.0105
     25 C          67.5141   94.2198    9.9265 C.3     1  UNL1        0.1816
     26 O          65.4915   94.4614   10.5184 O.2     1  UNL1       -0.1686
     27 O          67.6292   92.4255   11.0525 O.2     1  UNL1       -0.1686
     28 O          62.7451   90.3385   14.2210 O.3     1  UNL1       -0.4824
     29 C          61.9779   89.6052   16.0578 C.3     1  UNL1        0.0436
     30 C          63.2693   89.4506   15.3105 C.3     1  UNL1        0.1334
     31 C          64.5606   89.2960   14.5631 C.3     1  UNL1        0.0436
     32 C          63.7934   88.5628   16.3999 C.3     1  UNL1        0.0436
@<TRIPOS>BOND
     1    29    30    1
     2    30    31    1
     3    30    32    1
     4    30    28    1
     5    28    18    1
     6    18    19   ar
     7    19    20   ar
     8    20    21   ar
     9    21    24    1
    10    24    25    1
    11    24    26    2
    12    24    27    2
    13    21    22   ar
    14    22    23   ar
    15    23     1    1
    16     1     2    2
    17     1     3   am
    18     3     4    1
    19     4     5    1
    20     5     6   ar
    21     6     7   ar
    22     7    11    1
    23    11    12   ar
    24    12    13   ar
    25    13    14   ar
    26    14    15   ar
    27    15    16   ar
    28    16    17    1
    29     7     8   ar
    30     8     9   ar
    31     9    10    1
    32    23    18   ar
    33    10     3    1
    34     9     5   ar
    35    16    11   ar
@<TRIPOS>MOLECULE
*****
 32 35 0 0 0
SMALL
GASTEIGER

@<TRIPOS>ATOM
      1 C          64.0640   88.1129   14.4076 C.2     1  UNL1        0.2525
      2 O          64.4975   88.3177   15.8289 O.2     1  UNL1       -0.2698
      3 N          63.8513   86.7246   13.8809 N.am    1  UNL1       -0.2660
      4 C          63.4206   86.3658   12.4896 C.3     1  UNL1        0.1236
      5 C          63.3351   84.8708   12.4020 C.ar    1  UNL1        0.0338
      6 C          63.0161   83.7251   11.4879 C.ar    1  UNL1        0.0991
      7 N          63.1967   82.4518   12.2601 N.ar    1  UNL1       -0.2265
      8 N          63.6273   82.8107   13.6515 N.ar    1  UNL1       -0.1679
      9 C          63.7129   84.3057   13.7391 C.ar    1  UNL1        0.0981
     10 C          64.0319   85.4514   14.6532 C.3     1  UNL1        0.1414
     11 C          62.9840   81.0636   11.7335 C.ar    1  UNL1        0.1102
     12 C          63.1082   80.7918   10.2636 C.ar    1  UNL1        0.0214
     13 C          62.8955   79.4035    9.7369 C.ar    1  UNL1        0.0017
     14 C          62.5586   78.2869   10.6802 C.ar    1  UNL1        0.0024
     15 C          62.4343   78.5587   12.1502 C.ar    1  UNL1        0.0312
     16 C          62.6470   79.9470   12.6768 C.ar    1  UNL1        0.1577
     17 F          62.5228   80.2188   14.1467 F       1  UNL1       -0.2026
     18 C          64.6002   90.5692   13.7522 C.ar    1  UNL1        0.1426
     19 C          64.3793   91.7527   12.8576 C.ar    1  UNL1        0.0384
     20 C          63.4015   91.6636   11.7236 C.ar    1  UNL1        0.0215
     21 C          62.6445   90.3910   11.4842 C.ar    1  UNL1        0.1061
     22 C          62.8654   89.2074   12.3790 C.ar    1  UNL1        0.0259
     23 C          63.8432   89.2965   13.5130 C.ar    1  UNL1        0.0887
     24 S          61.6667   90.3019   10.3503 S.O2    1  UNL1        0.0105
     25 C          60.6889   90.2128    9.2163 C.3     1  UNL1        0.1816
     26 O          60.7014   89.5757   11.2397 O.2     1  UNL1       -0.1686
     27 O          62.6320   91.0280    9.4609 O.2     1  UNL1       -0.1686
     28 O          65.5780   90.6583   14.8862 O.3     1  UNL1       -0.4824
     29 C          67.3271   91.5459   14.0782 C.3     1  UNL1        0.0436
     30 C          66.3300   91.9332   15.1297 C.3     1  UNL1        0.1334
     31 C          65.3327   92.3204   16.1812 C.3     1  UNL1        0.0436
     32 C          67.0819   93.2080   15.3732 C.3     1  UNL1        0.0436
@<TRIPOS>BOND
     1    29    30    1
     2    30    31    1
     3    30    32    1
     4    30    28    1
     5    28    18    1
     6    18    19   ar
     7    19    20   ar
     8    20    21   ar
     9    21    24    1
    10    24    25    1
    11    24    26    2
    12    24    27    2
    13    21    22   ar
    14    22    23   ar
    15    23     1    1
    16     1     2    2
    17     1     3   am
    18     3     4    1
    19     4     5    1
    20     5     6   ar
    21     6     7   ar
    22     7    11    1
    23    11    12   ar
    24    12    13   ar
    25    13    14   ar
    26    14    15   ar
    27    15    16   ar
    28    16    17    1
    29     7     8   ar
    30     8     9   ar
    31     9    10    1
    32    23    18   ar
    33    10     3    1
    34     9     5   ar
    35    16    11   ar
@<TRIPOS>MOLECULE
*****
 32 35 0 0 0
SMALL
GASTEIGER

@<TRIPOS>ATOM
      1 C          62.2299   86.3759   12.1556 C.2     1  UNL1        0.2525
      2 O          62.1115   85.0986   12.9331 O.2     1  UNL1       -0.2698
      3 N          63.0938   87.4893   12.6693 N.am    1  UNL1       -0.2660
      4 C          63.3086   88.8169   12.0050 C.3     1  UNL1        0.1236
      5 C          64.2422   89.6187   12.8627 C.ar    1  UNL1        0.0338
      6 C          64.9519   90.9347   12.9822 C.ar    1  UNL1        0.0991
      7 N          65.7527   90.9161   14.2504 N.ar    1  UNL1       -0.2265
      8 N          65.5379   89.5884   14.9148 N.ar    1  UNL1       -0.1679
      9 C          64.6043   88.7866   14.0571 C.ar    1  UNL1        0.0981
     10 C          63.8946   87.4706   13.9376 C.3     1  UNL1        0.1414
     11 C          66.6166   92.0295   14.7641 C.ar    1  UNL1        0.1102
     12 C          67.5644   91.7805   15.8997 C.ar    1  UNL1        0.0214
     13 C          68.4284   92.8939   16.4135 C.ar    1  UNL1        0.0017
     14 C          68.3445   94.2563   15.7916 C.ar    1  UNL1        0.0024
     15 C          67.3966   94.5053   14.6560 C.ar    1  UNL1        0.0312
     16 C          66.5327   93.3920   14.1423 C.ar    1  UNL1        0.1577
     17 F          65.5849   93.6409   13.0066 F       1  UNL1       -0.2026
     18 C          60.3377   87.5029   10.7773 C.ar    1  UNL1        0.1426
     19 C          59.5922   87.6667    9.4861 C.ar    1  UNL1        0.0384
     20 C          59.9932   86.8673    8.2819 C.ar    1  UNL1        0.0215
     21 C          61.1398   85.9041    8.3689 C.ar    1  UNL1        0.1061
     22 C          61.8853   85.7404    9.6602 C.ar    1  UNL1        0.0259
     23 C          61.4843   86.5397   10.8644 C.ar    1  UNL1        0.0887
     24 S          61.5408   85.1047    7.1646 S.O2    1  UNL1        0.0105
     25 C          61.9418   84.3054    5.9604 C.3     1  UNL1        0.1816
     26 O          62.9711   85.1441    7.6148 O.2     1  UNL1       -0.1686
     27 O          60.1104   85.0654    6.7145 O.2     1  UNL1       -0.1686
     28 O          59.9367   88.3023   11.9816 O.3     1  UNL1       -0.4824
     29 C          58.1921   89.3062   12.6514 C.3     1  UNL1        0.0436
     30 C          59.3768   89.6836   11.8124 C.3     1  UNL1        0.1334
     31 C          60.5616   90.0610   10.9734 C.3     1  UNL1        0.0436
     32 C          58.8170   91.0648   11.6433 C.3     1  UNL1        0.0436
@<TRIPOS>BOND
     1    29    30    1
     2    30    31    1
     3    30    32    1
     4    30    28    1
     5    28    18    1
     6    18    19   ar
     7    19    20   ar
     8    20    21   ar
     9    21    24    1
    10    24    25    1
    11    24    26    2
    12    24    27    2
    13    21    22   ar
    14    22    23   ar
    15    23     1    1
    16     1     2    2
    17     1     3   am
    18     3     4    1
    19     4     5    1
    20     5     6   ar
    21     6     7   ar
    22     7    11    1
    23    11    12   ar
    24    12    13   ar
    25    13    14   ar
    26    14    15   ar
    27    15    16   ar
    28    16    17    1
    29     7     8   ar
    30     8     9   ar
    31     9    10    1
    32    23    18   ar
    33    10     3    1
    34     9     5   ar
    35    16    11   ar
@<TRIPOS>MOLECULE
*****
 32 35 0 0 0
SMALL
GASTEIGER

@<TRIPOS>ATOM
      1 C          59.8885   88.8673   10.8821 C.2     1  UNL1        0.2525
      2 O          58.6730   88.5963   11.7183 O.2     1  UNL1       -0.2698
      3 N          61.1179   89.4511   11.5129 N.am    1  UNL1       -0.2660
      4 C          62.4017   89.7747   10.8080 C.3     1  UNL1        0.1236
      5 C          63.3565   90.3374   11.8188 C.ar    1  UNL1        0.0338
      6 C          64.7400   90.8852   12.0079 C.ar    1  UNL1        0.0991
      7 N          64.9013   91.2479   13.4544 N.ar    1  UNL1       -0.2265
      8 N          63.6174   90.9243   14.1594 N.ar    1  UNL1       -0.1679
      9 C          62.6627   90.3616   13.1485 C.ar    1  UNL1        0.0981
     10 C          61.2791   89.8138   12.9595 C.3     1  UNL1        0.1414
     11 C          66.1306   91.8317   14.0852 C.ar    1  UNL1        0.1102
     12 C          67.4093   91.9092   13.3050 C.ar    1  UNL1        0.0214
     13 C          68.6387   92.4930   13.9358 C.ar    1  UNL1        0.0017
     14 C          68.5893   92.9993   15.3469 C.ar    1  UNL1        0.0024
     15 C          67.3104   92.9219   16.1271 C.ar    1  UNL1        0.0312
     16 C          66.0812   92.3381   15.4963 C.ar    1  UNL1        0.1577
     17 F          64.8024   92.2606   16.2766 F       1  UNL1       -0.2026
     18 C          60.2061   87.1707    8.9402 C.ar    1  UNL1        0.1426
     19 C          60.1923   86.8580    7.4732 C.ar    1  UNL1        0.0384
     20 C          59.8470   87.9288    6.4812 C.ar    1  UNL1        0.0215
     21 C          59.5156   89.3125    6.9562 C.ar    1  UNL1        0.1061
     22 C          59.5294   89.6253    8.4232 C.ar    1  UNL1        0.0259
     23 C          59.8747   88.5544    9.4152 C.ar    1  UNL1        0.0887
     24 S          59.1703   90.3833    5.9642 S.O2    1  UNL1        0.0105
     25 C          58.8251   91.4542    4.9722 C.3     1  UNL1        0.1816
     26 O          60.6242   90.5447    5.6323 O.2     1  UNL1       -0.1686
     27 O          57.7164   90.2220    6.2961 O.2     1  UNL1       -0.1686
     28 O          60.5514   86.0999    9.9322 O.3     1  UNL1       -0.4824
     29 C          61.9568   85.4607    8.4774 C.3     1  UNL1        0.0436
     30 C          61.9413   85.5374    9.9754 C.3     1  UNL1        0.1334
     31 C          61.9257   85.6142   11.4734 C.3     1  UNL1        0.0436
     32 C          63.3311   84.9750   10.0186 C.3     1  UNL1        0.0436
@<TRIPOS>BOND
     1    29    30    1
     2    30    31    1
     3    30    32    1
     4    30    28    1
     5    28    18    1
     6    18    19   ar
     7    19    20   ar
     8    20    21   ar
     9    21    24    1
    10    24    25    1
    11    24    26    2
    12    24    27    2
    13    21    22   ar
    14    22    23   ar
    15    23     1    1
    16     1     2    2
    17     1     3   am
    18     3     4    1
    19     4     5    1
    20     5     6   ar
    21     6     7   ar
    22     7    11    1
    23    11    12   ar
    24    12    13   ar
    25    13    14   ar
    26    14    15   ar
    27    15    16   ar
    28    16    17    1
    29     7     8   ar
    30     8     9   ar
    31     9    10    1
    32    23    18   ar
    33    10     3    1
    34     9     5   ar
    35    16    11   ar
@<TRIPOS>MOLECULE
*****
 32 35 0 0 0
SMALL
GASTEIGER

@<TRIPOS>ATOM
      1 C          64.2764   89.4339   15.1027 C.2     1  UNL1        0.2525
      2 O          64.3137   89.9740   16.5016 O.2     1  UNL1       -0.2698
      3 N          63.9331   87.9933   14.8638 N.am    1  UNL1       -0.2660
      4 C          63.8568   87.3149   13.5282 C.3     1  UNL1        0.1236
      5 C          63.4824   85.8806   13.7576 C.ar    1  UNL1        0.0338
      6 C          63.2038   84.5749   13.0740 C.ar    1  UNL1        0.0991
      7 N          62.8766   83.5598   14.1288 N.ar    1  UNL1       -0.2265
      8 N          62.9529   84.2384   15.4645 N.ar    1  UNL1       -0.1679
      9 C          63.3273   85.6726   15.2350 C.ar    1  UNL1        0.0981
     10 C          63.6059   86.9784   15.9187 C.3     1  UNL1        0.1414
     11 C          62.5333   82.1194   13.8900 C.ar    1  UNL1        0.1102
     12 C          61.2286   81.5675   14.3832 C.ar    1  UNL1        0.0214
     13 C          60.8853   80.1270   14.1444 C.ar    1  UNL1        0.0017
     14 C          61.8467   79.2383   13.4123 C.ar    1  UNL1        0.0024
     15 C          63.1514   79.7902   12.9190 C.ar    1  UNL1        0.0312
     16 C          63.4947   81.2306   13.1578 C.ar    1  UNL1        0.1577
     17 F          64.7993   81.7825   12.6646 F       1  UNL1       -0.2026
     18 C          65.7660   91.2541   13.9988 C.ar    1  UNL1        0.1426
     19 C          66.0718   92.1544   12.8388 C.ar    1  UNL1        0.0384
     20 C          65.1942   92.1351   11.6225 C.ar    1  UNL1        0.0215
     21 C          64.0105   91.2154   11.5663 C.ar    1  UNL1        0.1061
     22 C          63.7047   90.3150   12.7264 C.ar    1  UNL1        0.0259
     23 C          64.5824   90.3343   13.9427 C.ar    1  UNL1        0.0887
     24 S          63.1329   91.1960   10.3500 S.O2    1  UNL1        0.0105
     25 C          62.2552   91.1767    9.1338 C.3     1  UNL1        0.1816
     26 O          63.8078   92.4361    9.8433 O.2     1  UNL1       -0.1686
     27 O          62.4580   89.9559   10.8568 O.2     1  UNL1       -0.1686
     28 O          66.6437   91.2734   15.2151 O.3     1  UNL1       -0.4824
     29 C          68.5763   92.0077   14.7399 C.3     1  UNL1        0.0436
     30 C          67.4230   92.5083   15.5580 C.3     1  UNL1        0.1334
     31 C          66.2697   93.0088   16.3762 C.3     1  UNL1        0.0436
     32 C          68.2023   93.7431   15.9010 C.3     1  UNL1        0.0436
@<TRIPOS>BOND
     1    29    30    1
     2    30    31    1
     3    30    32    1
     4    30    28    1
     5    28    18    1
     6    18    19   ar
     7    19    20   ar
     8    20    21   ar
     9    21    24    1
    10    24    25    1
    11    24    26    2
    12    24    27    2
    13    21    22   ar
    14    22    23   ar
    15    23     1    1
    16     1     2    2
    17     1     3   am
    18     3     4    1
    19     4     5    1
    20     5     6   ar
    21     6     7   ar
    22     7    11    1
    23    11    12   ar
    24    12    13   ar
    25    13    14   ar
    26    14    15   ar
    27    15    16   ar
    28    16    17    1
    29     7     8   ar
    30     8     9   ar
    31     9    10    1
    32    23    18   ar
    33    10     3    1
    34     9     5   ar
    35    16    11   ar
