@<TRIPOS>MOLECULE
*****
 32 34 0 0 0
SMALL
GASTEIGER

@<TRIPOS>ATOM
      1 O          64.6244   82.9759   15.3024 O.3     1  UNL1       -0.3755
      2 C          64.1191   84.0309   14.3634 C.3     1  UNL1        0.1932
      3 H          64.0307   82.9122   16.0668 H       1  UNL1        0.2110
      4 C          63.7668   82.9709   13.3622 C.ar    1  UNL1        0.0368
      5 C          64.5027   82.8976   12.0571 C.ar    1  UNL1        0.0028
      6 C          64.1505   81.8377   11.0560 C.ar    1  UNL1        0.0295
      7 C          63.0623   80.8510   11.3598 C.ar    1  UNL1        0.1424
      8 F          62.7100   79.7910   10.3586 F       1  UNL1       -0.2041
      9 C          62.3264   80.9243   12.6648 C.ar    1  UNL1        0.0590
     10 C          62.6786   81.9842   13.6660 C.ar    1  UNL1        0.1408
     11 F          61.9427   82.0575   14.9710 F       1  UNL1       -0.2043
     12 C          63.6139   85.0858   13.4244 C.3     1  UNL1        0.3254
     13 F          64.9266   85.8045   13.5254 F       1  UNL1       -0.1949
     14 F          62.2178   84.6437   13.0991 F       1  UNL1       -0.1949
     15 C          63.1086   86.1408   12.4853 C.ar    1  UNL1        0.1220
     16 C          62.3963   85.7450   11.2259 C.ar    1  UNL1        0.0233
     17 C          61.8910   86.7998   10.2869 C.ar    1  UNL1        0.0399
     18 C          62.0979   88.2506   10.6072 C.ar    1  UNL1        0.1580
     19 C          62.8101   88.6464   11.8666 C.ar    1  UNL1        0.1354
     20 N          63.3154   87.5914   12.8057 N.ar    1  UNL1       -0.2396
     21 O          61.5926   89.3055    9.6682 O.3     1  UNL1       -0.4650
     22 C          60.1386   89.3494    9.3019 C.3     1  UNL1        0.3082
     23 C          59.6233   88.5047    8.1746 C.3     1  UNL1        0.4380
     24 F          59.1080   87.6599    7.0473 F       1  UNL1       -0.1663
     25 F          60.0874   89.5363    7.1895 F       1  UNL1       -0.1663
     26 F          59.1593   87.4731    9.1598 F       1  UNL1       -0.1663
     27 C          64.4715   85.0908   15.3646 C.3     1  UNL1        0.1679
     28 N          63.3849   85.8445   16.0727 N.ar    1  UNL1       -0.2078
     29 C          63.4324   87.2883   16.4765 C.ar    1  UNL1        0.2216
     30 N          62.1370   87.6229   17.1547 N.ar    1  UNL1       -0.1048
     31 N          61.2889   86.3857   17.1700 N.ar    1  UNL1       -0.0226
     32 N          62.0601   85.2867   16.5013 N.ar    1  UNL1       -0.0428
@<TRIPOS>BOND
     1     1     2    1
     2     2    27    1
     3    27    28    1
     4    28    29   ar
     5    29    30   ar
     6    30    31   ar
     7    31    32   ar
     8     2     4    1
     9     4     5   ar
    10     5     6   ar
    11     6     7   ar
    12     7     8    1
    13     7     9   ar
    14     9    10   ar
    15    10    11    1
    16     2    12    1
    17    12    13    1
    18    12    14    1
    19    12    15    1
    20    15    16   ar
    21    16    17   ar
    22    17    18   ar
    23    18    21    1
    24    21    22    1
    25    22    23    1
    26    23    24    1
    27    23    25    1
    28    23    26    1
    29    18    19   ar
    30    19    20   ar
    31    32    28   ar
    32    10     4   ar
    33    20    15   ar
    34     1     3    1
@<TRIPOS>MOLECULE
*****
 32 34 0 0 0
SMALL
GASTEIGER

@<TRIPOS>ATOM
      1 O          63.8063   91.8861   13.4105 O.3     1  UNL1       -0.3755
      2 C          63.8202   90.3934   13.5569 C.3     1  UNL1        0.1932
      3 H          64.6538   92.1829   13.0436 H       1  UNL1        0.2110
      4 C          62.8080   90.2760   12.4560 C.ar    1  UNL1        0.0368
      5 C          61.4466   89.7168   12.7454 C.ar    1  UNL1        0.0028
      6 C          60.4345   89.5994   11.6446 C.ar    1  UNL1        0.0295
      7 C          60.7838   90.0413   10.2544 C.ar    1  UNL1        0.1424
      8 F          59.7717   89.9240    9.1535 F       1  UNL1       -0.2041
      9 C          62.1452   90.6006    9.9650 C.ar    1  UNL1        0.0590
     10 C          63.1574   90.7179   11.0658 C.ar    1  UNL1        0.1408
     11 F          64.5188   91.2772   10.7765 F       1  UNL1       -0.2043
     12 C          63.8340   88.9006   13.7033 C.3     1  UNL1        0.3254
     13 F          63.8935   89.0475   15.1949 F       1  UNL1       -0.1949
     14 F          63.7796   88.3969   12.2914 F       1  UNL1       -0.1949
     15 C          63.8479   87.4078   13.8497 C.ar    1  UNL1        0.1220
     16 C          64.5376   86.7756   15.0222 C.ar    1  UNL1        0.0233
     17 C          64.5514   85.2828   15.1686 C.ar    1  UNL1        0.0399
     18 C          63.8756   84.4222   14.1425 C.ar    1  UNL1        0.1580
     19 C          63.1859   85.0545   12.9701 C.ar    1  UNL1        0.1354
     20 N          63.1721   86.5473   12.8237 N.ar    1  UNL1       -0.2396
     21 O          63.8895   82.9295   14.2890 O.3     1  UNL1       -0.4650
     22 C          62.6042   82.1583   14.2321 C.3     1  UNL1        0.3082
     23 C          62.5106   80.9172   13.3950 C.3     1  UNL1        0.4380
     24 F          62.4171   79.6760   12.5578 F       1  UNL1       -0.1663
     25 F          61.0617   80.7812   13.7585 F       1  UNL1       -0.1663
     26 F          63.9596   81.0532   13.0314 F       1  UNL1       -0.1663
     27 C          64.8323   90.5107   14.6577 C.3     1  UNL1        0.1679
     28 N          65.8860   91.5766   14.5973 N.ar    1  UNL1       -0.2078
     29 C          66.2566   92.5140   15.7081 C.ar    1  UNL1        0.2216
     30 N          67.3538   93.4089   15.2127 N.ar    1  UNL1       -0.1048
     31 N          67.6612   93.0247   13.7958 N.ar    1  UNL1       -0.0226
     32 N          66.7540   91.8922   13.4154 N.ar    1  UNL1       -0.0428
@<TRIPOS>BOND
     1     1     2    1
     2     2    27    1
     3    27    28    1
     4    28    29   ar
     5    29    30   ar
     6    30    31   ar
     7    31    32   ar
     8     2     4    1
     9     4     5   ar
    10     5     6   ar
    11     6     7   ar
    12     7     8    1
    13     7     9   ar
    14     9    10   ar
    15    10    11    1
    16     2    12    1
    17    12    13    1
    18    12    14    1
    19    12    15    1
    20    15    16   ar
    21    16    17   ar
    22    17    18   ar
    23    18    21    1
    24    21    22    1
    25    22    23    1
    26    23    24    1
    27    23    25    1
    28    23    26    1
    29    18    19   ar
    30    19    20   ar
    31    32    28   ar
    32    10     4   ar
    33    20    15   ar
    34     1     3    1
@<TRIPOS>MOLECULE
*****
 32 34 0 0 0
SMALL
GASTEIGER

@<TRIPOS>ATOM
      1 O          64.5546   82.8780   15.2449 O.3     1  UNL1       -0.3755
      2 C          64.1076   84.0261   14.3894 C.3     1  UNL1        0.1932
      3 H          63.9202   82.7464   15.9667 H       1  UNL1        0.2110
      4 C          63.8029   83.0740   13.2710 C.ar    1  UNL1        0.0368
      5 C          64.5712   83.1568   11.9854 C.ar    1  UNL1        0.0028
      6 C          64.2666   82.2047   10.8670 C.ar    1  UNL1        0.0295
      7 C          63.1937   81.1700   11.0343 C.ar    1  UNL1        0.1424
      8 F          62.8890   80.2179    9.9159 F       1  UNL1       -0.2041
      9 C          62.4254   81.0872   12.3199 C.ar    1  UNL1        0.0590
     10 C          62.7300   82.0392   13.4383 C.ar    1  UNL1        0.1408
     11 F          61.9617   81.9565   14.7239 F       1  UNL1       -0.2043
     12 C          63.6605   85.1742   13.5339 C.3     1  UNL1        0.3254
     13 F          64.9672   85.8678   13.7818 F       1  UNL1       -0.1949
     14 F          62.2844   84.7790   13.0863 F       1  UNL1       -0.1949
     15 C          63.2134   86.3224   12.6783 C.ar    1  UNL1        0.1220
     16 C          62.4502   86.0624   11.4134 C.ar    1  UNL1        0.0233
     17 C          62.0031   87.2104   10.5579 C.ar    1  UNL1        0.0399
     18 C          62.3192   88.6185   10.9671 C.ar    1  UNL1        0.1580
     19 C          63.0824   88.8785   12.2320 C.ar    1  UNL1        0.1354
     20 N          63.5295   87.7303   13.0876 N.ar    1  UNL1       -0.2396
     21 O          61.8720   89.7666   10.1116 O.3     1  UNL1       -0.4650
     22 C          60.4127   90.0951   10.0002 C.3     1  UNL1        0.3082
     23 C          59.5065   89.8933   11.1783 C.3     1  UNL1        0.4380
     24 F          58.6002   89.6915   12.3565 F       1  UNL1       -0.1663
     25 F          59.2312   88.4899   10.7261 F       1  UNL1       -0.1663
     26 F          59.7818   91.2968   11.6305 F       1  UNL1       -0.1663
     27 C          64.4123   84.9781   15.5078 C.3     1  UNL1        0.1679
     28 N          63.3004   85.7333   16.1737 N.ar    1  UNL1       -0.2078
     29 C          63.3716   87.1439   16.6788 C.ar    1  UNL1        0.2216
     30 N          62.0374   87.4930   17.2688 N.ar    1  UNL1       -0.1048
     31 N          61.1416   86.2980   17.1283 N.ar    1  UNL1       -0.0226
     32 N          61.9222   85.2106   16.4515 N.ar    1  UNL1       -0.0428
@<TRIPOS>BOND
     1     1     2    1
     2     2    27    1
     3    27    28    1
     4    28    29   ar
     5    29    30   ar
     6    30    31   ar
     7    31    32   ar
     8     2     4    1
     9     4     5   ar
    10     5     6   ar
    11     6     7   ar
    12     7     8    1
    13     7     9   ar
    14     9    10   ar
    15    10    11    1
    16     2    12    1
    17    12    13    1
    18    12    14    1
    19    12    15    1
    20    15    16   ar
    21    16    17   ar
    22    17    18   ar
    23    18    21    1
    24    21    22    1
    25    22    23    1
    26    23    24    1
    27    23    25    1
    28    23    26    1
    29    18    19   ar
    30    19    20   ar
    31    32    28   ar
    32    10     4   ar
    33    20    15   ar
    34     1     3    1
@<TRIPOS>MOLECULE
*****
 32 34 0 0 0
SMALL
GASTEIGER

@<TRIPOS>ATOM
      1 O          62.4048   83.8843   11.4795 O.3     1  UNL1       -0.3755
      2 C          62.7890   85.2456   11.9784 C.3     1  UNL1        0.1932
      3 H          61.7874   83.4732   12.1046 H       1  UNL1        0.2110
      4 C          62.0222   85.8745   10.8529 C.ar    1  UNL1        0.0368
      5 C          60.8501   86.7627   11.1481 C.ar    1  UNL1        0.0028
      6 C          60.0833   87.3915   10.0227 C.ar    1  UNL1        0.0295
      7 C          60.4887   87.1321    8.6020 C.ar    1  UNL1        0.1424
      8 F          59.7219   87.7609    7.4765 F       1  UNL1       -0.2041
      9 C          61.6608   86.2439    8.3068 C.ar    1  UNL1        0.0590
     10 C          62.4276   85.6150    9.4322 C.ar    1  UNL1        0.1408
     11 F          63.5997   84.7268    9.1369 F       1  UNL1       -0.2043
     12 C          63.1732   86.6070   12.4773 C.3     1  UNL1        0.3254
     13 F          63.3045   86.0603   13.8679 F       1  UNL1       -0.1949
     14 F          63.1389   87.4669   11.2486 F       1  UNL1       -0.1949
     15 C          63.5575   87.9685   12.9762 C.ar    1  UNL1        0.1220
     16 C          64.2522   88.1145   14.2976 C.ar    1  UNL1        0.0233
     17 C          64.6364   89.4759   14.7965 C.ar    1  UNL1        0.0399
     18 C          64.3260   90.6913   13.9739 C.ar    1  UNL1        0.1580
     19 C          63.6314   90.5453   12.6525 C.ar    1  UNL1        0.1354
     20 N          63.2471   89.1838   12.1537 N.ar    1  UNL1       -0.2396
     21 O          64.7103   92.0527   14.4728 O.3     1  UNL1       -0.4650
     22 C          66.1257   92.5299   14.3355 C.3     1  UNL1        0.3082
     23 C          67.1242   92.2367   15.4157 C.3     1  UNL1        0.4380
     24 F          68.1228   91.9435   16.4960 F       1  UNL1       -0.1663
     25 F          67.9874   91.5169   14.4223 F       1  UNL1       -0.1663
     26 F          66.2610   92.9566   16.4090 F       1  UNL1       -0.1663
     27 C          63.5557   84.6168   13.1038 C.3     1  UNL1        0.1679
     28 N          63.3304   83.1751   13.4514 N.ar    1  UNL1       -0.2078
     29 C          62.3784   82.6565   14.4881 C.ar    1  UNL1        0.2216
     30 N          62.4771   81.1598   14.5007 N.ar    1  UNL1       -0.1048
     31 N          63.4901   80.7534   13.4719 N.ar    1  UNL1       -0.0226
     32 N          64.0175   81.9989   12.8234 N.ar    1  UNL1       -0.0428
@<TRIPOS>BOND
     1     1     2    1
     2     2    27    1
     3    27    28    1
     4    28    29   ar
     5    29    30   ar
     6    30    31   ar
     7    31    32   ar
     8     2     4    1
     9     4     5   ar
    10     5     6   ar
    11     6     7   ar
    12     7     8    1
    13     7     9   ar
    14     9    10   ar
    15    10    11    1
    16     2    12    1
    17    12    13    1
    18    12    14    1
    19    12    15    1
    20    15    16   ar
    21    16    17   ar
    22    17    18   ar
    23    18    21    1
    24    21    22    1
    25    22    23    1
    26    23    24    1
    27    23    25    1
    28    23    26    1
    29    18    19   ar
    30    19    20   ar
    31    32    28   ar
    32    10     4   ar
    33    20    15   ar
    34     1     3    1
@<TRIPOS>MOLECULE
*****
 32 34 0 0 0
SMALL
GASTEIGER

@<TRIPOS>ATOM
      1 O          63.2424   91.0366   13.0740 O.3     1  UNL1       -0.3755
      2 C          63.2932   89.5402   12.9844 C.3     1  UNL1        0.1932
      3 H          64.0919   91.4067   12.7873 H       1  UNL1        0.2110
      4 C          62.3182   89.5754   11.8450 C.ar    1  UNL1        0.0368
      5 C          62.8168   89.5562   10.4304 C.ar    1  UNL1        0.0028
      6 C          61.8418   89.5914    9.2910 C.ar    1  UNL1        0.0295
      7 C          60.3683   89.6457    9.5662 C.ar    1  UNL1        0.1424
      8 F          59.3933   89.6809    8.4268 F       1  UNL1       -0.2041
      9 C          59.8697   89.6649   10.9808 C.ar    1  UNL1        0.0590
     10 C          60.8447   89.6297   12.1202 C.ar    1  UNL1        0.1408
     11 F          60.3461   89.6489   13.5348 F       1  UNL1       -0.2043
     12 C          63.3440   88.0438   12.8948 C.3     1  UNL1        0.3254
     13 F          64.2306   88.0014   14.1039 F       1  UNL1       -0.1949
     14 F          62.4959   87.7227   11.6999 F       1  UNL1       -0.1949
     15 C          63.3947   86.5472   12.8052 C.ar    1  UNL1        0.1220
     16 C          62.6806   85.8379   11.6931 C.ar    1  UNL1        0.0233
     17 C          62.7313   84.3415   11.6034 C.ar    1  UNL1        0.0399
     18 C          63.4962   83.5543   12.6258 C.ar    1  UNL1        0.1580
     19 C          64.2104   84.2637   13.7379 C.ar    1  UNL1        0.1354
     20 N          64.1596   85.7602   13.8276 N.ar    1  UNL1       -0.2396
     21 O          63.5469   82.0579   12.5362 O.3     1  UNL1       -0.4650
     22 C          63.1652   81.2221   13.7218 C.3     1  UNL1        0.3082
     23 C          61.7227   80.9030   13.9813 C.3     1  UNL1        0.4380
     24 F          60.2802   80.5839   14.2409 F       1  UNL1       -0.1663
     25 F          61.5610   82.2134   14.6931 F       1  UNL1       -0.1663
     26 F          61.8846   79.5926   13.2695 F       1  UNL1       -0.1663
     27 C          64.2681   89.5050   14.1238 C.3     1  UNL1        0.1679
     28 N          64.4078   90.6935   15.0283 N.ar    1  UNL1       -0.2078
     29 C          65.5902   91.6138   15.0986 C.ar    1  UNL1        0.2216
     30 N          65.3028   92.6594   16.1351 N.ar    1  UNL1       -0.1048
     31 N          63.9428   92.3852   16.7053 N.ar    1  UNL1       -0.0226
     32 N          63.3897   91.1703   16.0213 N.ar    1  UNL1       -0.0428
@<TRIPOS>BOND
     1     1     2    1
     2     2    27    1
     3    27    28    1
     4    28    29   ar
     5    29    30   ar
     6    30    31   ar
     7    31    32   ar
     8     2     4    1
     9     4     5   ar
    10     5     6   ar
    11     6     7   ar
    12     7     8    1
    13     7     9   ar
    14     9    10   ar
    15    10    11    1
    16     2    12    1
    17    12    13    1
    18    12    14    1
    19    12    15    1
    20    15    16   ar
    21    16    17   ar
    22    17    18   ar
    23    18    21    1
    24    21    22    1
    25    22    23    1
    26    23    24    1
    27    23    25    1
    28    23    26    1
    29    18    19   ar
    30    19    20   ar
    31    32    28   ar
    32    10     4   ar
    33    20    15   ar
    34     1     3    1
@<TRIPOS>MOLECULE
*****
 32 34 0 0 0
SMALL
GASTEIGER

@<TRIPOS>ATOM
      1 O          60.2757   90.6213   10.9274 O.3     1  UNL1       -0.3755
      2 C          60.9409   89.2832   11.0573 C.3     1  UNL1        0.1932
      3 H          59.5728   90.6988   11.5913 H       1  UNL1        0.2110
      4 C          62.1859   89.9511   11.5614 C.ar    1  UNL1        0.0368
      5 C          62.6393   89.7246   12.9732 C.ar    1  UNL1        0.0028
      6 C          63.8843   90.3925   13.4773 C.ar    1  UNL1        0.0295
      7 C          64.6757   91.2867   12.5696 C.ar    1  UNL1        0.1424
      8 F          65.9207   91.9546   13.0737 F       1  UNL1       -0.2041
      9 C          64.2222   91.5131   11.1578 C.ar    1  UNL1        0.0590
     10 C          62.9773   90.8453   10.6537 C.ar    1  UNL1        0.1408
     11 F          62.5238   91.0717    9.2420 F       1  UNL1       -0.2043
     12 C          61.6060   87.9451   11.1873 C.3     1  UNL1        0.3254
     13 F          60.4542   87.4526   12.0123 F       1  UNL1       -0.1949
     14 F          62.8847   88.0991   10.4182 F       1  UNL1       -0.1949
     15 C          62.2713   86.6069   11.3172 C.ar    1  UNL1        0.1220
     16 C          62.3946   85.7113   10.1203 C.ar    1  UNL1        0.0233
     17 C          63.0598   84.3731   10.2502 C.ar    1  UNL1        0.0399
     18 C          63.6017   83.9306   11.5771 C.ar    1  UNL1        0.1580
     19 C          63.4784   84.8262   12.7740 C.ar    1  UNL1        0.1354
     20 N          62.8132   86.1644   12.6441 N.ar    1  UNL1       -0.2396
     21 O          64.2669   82.5925   11.7069 O.3     1  UNL1       -0.4650
     22 C          64.0387   81.7572   12.9318 C.3     1  UNL1        0.3082
     23 C          62.6797   81.1851   13.2069 C.3     1  UNL1        0.4380
     24 F          61.3207   80.6129   13.4821 F       1  UNL1       -0.1663
     25 F          62.6196   81.9484   14.4968 F       1  UNL1       -0.1663
     26 F          62.7400   80.4217   11.9170 F       1  UNL1       -0.1663
     27 C          59.6959   88.6154   10.5533 C.3     1  UNL1        0.1679
     28 N          59.5641   88.2747    9.0985 N.ar    1  UNL1       -0.2078
     29 C          59.2539   86.9196    8.5349 C.ar    1  UNL1        0.2216
     30 N          59.2173   87.0366    7.0399 N.ar    1  UNL1       -0.1048
     31 N          59.5049   88.4640    6.6795 N.ar    1  UNL1       -0.0226
     32 N          59.7192   89.2291    7.9518 N.ar    1  UNL1       -0.0428
@<TRIPOS>BOND
     1     1     2    1
     2     2    27    1
     3    27    28    1
     4    28    29   ar
     5    29    30   ar
     6    30    31   ar
     7    31    32   ar
     8     2     4    1
     9     4     5   ar
    10     5     6   ar
    11     6     7   ar
    12     7     8    1
    13     7     9   ar
    14     9    10   ar
    15    10    11    1
    16     2    12    1
    17    12    13    1
    18    12    14    1
    19    12    15    1
    20    15    16   ar
    21    16    17   ar
    22    17    18   ar
    23    18    21    1
    24    21    22    1
    25    22    23    1
    26    23    24    1
    27    23    25    1
    28    23    26    1
    29    18    19   ar
    30    19    20   ar
    31    32    28   ar
    32    10     4   ar
    33    20    15   ar
    34     1     3    1
@<TRIPOS>MOLECULE
*****
 32 34 0 0 0
SMALL
GASTEIGER

@<TRIPOS>ATOM
      1 O          62.1484   84.3905   11.6219 O.3     1  UNL1       -0.3755
      2 C          62.6382   85.7519   12.0174 C.3     1  UNL1        0.1932
      3 H          61.5613   84.0449   12.3123 H       1  UNL1        0.2110
      4 C          61.8193   86.3652   10.9204 C.ar    1  UNL1        0.0368
      5 C          60.6590   87.2539   11.2579 C.ar    1  UNL1        0.0028
      6 C          59.8402   87.8672   10.1610 C.ar    1  UNL1        0.0295
      7 C          60.1816   87.5918    8.7266 C.ar    1  UNL1        0.1424
      8 F          59.3628   88.2051    7.6296 F       1  UNL1       -0.2041
      9 C          61.3419   86.7031    8.3891 C.ar    1  UNL1        0.0590
     10 C          62.1608   86.0898    9.4860 C.ar    1  UNL1        0.1408
     11 F          63.3211   85.2011    9.1486 F       1  UNL1       -0.2043
     12 C          63.1281   87.1133   12.4130 C.3     1  UNL1        0.3254
     13 F          63.4971   86.5868   13.7682 F       1  UNL1       -0.1949
     14 F          62.8885   87.9537   11.1937 F       1  UNL1       -0.1949
     15 C          63.6179   88.4748   12.8085 C.ar    1  UNL1        0.1220
     16 C          63.3352   89.6579   11.9307 C.ar    1  UNL1        0.0233
     17 C          63.8250   91.0193   12.3262 C.ar    1  UNL1        0.0399
     18 C          64.5976   91.1978   13.5996 C.ar    1  UNL1        0.1580
     19 C          64.8803   90.0148   14.4774 C.ar    1  UNL1        0.1354
     20 N          64.3904   88.6533   14.0819 N.ar    1  UNL1       -0.2396
     21 O          65.0874   92.5593   13.9951 O.3     1  UNL1       -0.4650
     22 C          66.2288   93.1902   13.2540 C.3     1  UNL1        0.3082
     23 C          66.6422   92.6536   11.9157 C.3     1  UNL1        0.4380
     24 F          67.0555   92.1170   10.5773 F       1  UNL1       -0.1663
     25 F          67.7078   91.8295   12.5753 F       1  UNL1       -0.1663
     26 F          65.5764   93.4778   11.2561 F       1  UNL1       -0.1663
     27 C          63.4570   85.1386   13.1144 C.3     1  UNL1        0.1679
     28 N          63.3153   83.6789   13.4297 N.ar    1  UNL1       -0.2078
     29 C          62.4341   83.0874   14.4897 C.ar    1  UNL1        0.2216
     30 N          62.6040   81.5975   14.4555 N.ar    1  UNL1       -0.1048
     31 N          63.5902   81.2681   13.3743 N.ar    1  UNL1       -0.0226
     32 N          64.0298   82.5545   12.7403 N.ar    1  UNL1       -0.0428
@<TRIPOS>BOND
     1     1     2    1
     2     2    27    1
     3    27    28    1
     4    28    29   ar
     5    29    30   ar
     6    30    31   ar
     7    31    32   ar
     8     2     4    1
     9     4     5   ar
    10     5     6   ar
    11     6     7   ar
    12     7     8    1
    13     7     9   ar
    14     9    10   ar
    15    10    11    1
    16     2    12    1
    17    12    13    1
    18    12    14    1
    19    12    15    1
    20    15    16   ar
    21    16    17   ar
    22    17    18   ar
    23    18    21    1
    24    21    22    1
    25    22    23    1
    26    23    24    1
    27    23    25    1
    28    23    26    1
    29    18    19   ar
    30    19    20   ar
    31    32    28   ar
    32    10     4   ar
    33    20    15   ar
    34     1     3    1
@<TRIPOS>MOLECULE
*****
 32 34 0 0 0
SMALL
GASTEIGER

@<TRIPOS>ATOM
      1 O          64.6627   83.9259   14.1885 O.3     1  UNL1       -0.3755
      2 C          63.7820   84.6525   13.2157 C.3     1  UNL1        0.1932
      3 H          64.2138   83.8623   15.0460 H       1  UNL1        0.2110
      4 C          63.5818   83.3802   12.4467 C.ar    1  UNL1        0.0368
      5 C          64.2347   83.2024   11.1080 C.ar    1  UNL1        0.0028
      6 C          64.0346   81.9302   10.3390 C.ar    1  UNL1        0.0295
      7 C          63.1816   80.8358   10.9088 C.ar    1  UNL1        0.1424
      8 F          62.9814   79.5635   10.1398 F       1  UNL1       -0.2041
      9 C          62.5287   81.0136   12.2475 C.ar    1  UNL1        0.0590
     10 C          62.7288   82.2858   13.0165 C.ar    1  UNL1        0.1408
     11 F          62.0759   82.4636   14.3552 F       1  UNL1       -0.2043
     12 C          62.9012   85.3790   12.2429 C.3     1  UNL1        0.3254
     13 F          63.6007   86.6650   12.5702 F       1  UNL1       -0.1949
     14 F          62.0094   84.3071   11.6900 F       1  UNL1       -0.1949
     15 C          62.0204   86.1056   11.2701 C.ar    1  UNL1        0.1220
     16 C          61.1629   87.2433   11.7397 C.ar    1  UNL1        0.0233
     17 C          60.2822   87.9698   10.7669 C.ar    1  UNL1        0.0399
     18 C          60.2589   87.5588    9.3245 C.ar    1  UNL1        0.1580
     19 C          61.1163   86.4211    8.8549 C.ar    1  UNL1        0.1354
     20 N          61.9971   85.6946    9.8277 N.ar    1  UNL1       -0.2396
     21 O          59.3781   88.2853    8.3517 O.3     1  UNL1       -0.4650
     22 C          59.9872   89.0400    7.2074 C.3     1  UNL1        0.3082
     23 C          59.1063   89.7650    6.2336 C.3     1  UNL1        0.4380
     24 F          58.2254   90.4900    5.2597 F       1  UNL1       -0.1663
     25 F          60.3168   90.3820    5.5980 F       1  UNL1       -0.1663
     26 F          57.8958   89.1480    6.8692 F       1  UNL1       -0.1663
     27 C          63.9821   85.9247   13.9847 C.3     1  UNL1        0.1679
     28 N          63.3077   86.1133   15.3112 N.ar    1  UNL1       -0.2078
     29 C          63.4349   87.3132   16.2023 C.ar    1  UNL1        0.2216
     30 N          62.5935   87.0766   17.4213 N.ar    1  UNL1       -0.1048
     31 N          61.9462   85.7305   17.2836 N.ar    1  UNL1       -0.0226
     32 N          62.3877   85.1351   15.9795 N.ar    1  UNL1       -0.0428
@<TRIPOS>BOND
     1     1     2    1
     2     2    27    1
     3    27    28    1
     4    28    29   ar
     5    29    30   ar
     6    30    31   ar
     7    31    32   ar
     8     2     4    1
     9     4     5   ar
    10     5     6   ar
    11     6     7   ar
    12     7     8    1
    13     7     9   ar
    14     9    10   ar
    15    10    11    1
    16     2    12    1
    17    12    13    1
    18    12    14    1
    19    12    15    1
    20    15    16   ar
    21    16    17   ar
    22    17    18   ar
    23    18    21    1
    24    21    22    1
    25    22    23    1
    26    23    24    1
    27    23    25    1
    28    23    26    1
    29    18    19   ar
    30    19    20   ar
    31    32    28   ar
    32    10     4   ar
    33    20    15   ar
    34     1     3    1
@<TRIPOS>MOLECULE
*****
 32 34 0 0 0
SMALL
GASTEIGER

@<TRIPOS>ATOM
      1 O          63.3334   82.6024   13.4371 O.3     1  UNL1       -0.3755
      2 C          63.5031   84.0908   13.5134 C.3     1  UNL1        0.1932
      3 H          62.4845   82.3530   13.8348 H       1  UNL1        0.2110
      4 C          63.3534   84.1841   12.0237 C.ar    1  UNL1        0.0368
      5 C          62.3070   85.0798   11.4298 C.ar    1  UNL1        0.0028
      6 C          62.1573   85.1732    9.9403 C.ar    1  UNL1        0.0295
      7 C          63.0540   84.3709    9.0446 C.ar    1  UNL1        0.1424
      8 F          62.9043   84.4642    7.5550 F       1  UNL1       -0.2041
      9 C          64.1004   83.4752    9.6385 C.ar    1  UNL1        0.0590
     10 C          64.2501   83.3818   11.1281 C.ar    1  UNL1        0.1408
     11 F          65.2965   82.4861   11.7220 F       1  UNL1       -0.2043
     12 C          63.6729   85.5792   13.5896 C.3     1  UNL1        0.3254
     13 F          65.0600   85.3933   14.1294 F       1  UNL1       -0.1949
     14 F          62.3680   86.1197   13.0843 F       1  UNL1       -0.1949
     15 C          63.8426   87.0676   13.6659 C.ar    1  UNL1        0.1220
     16 C          64.5489   87.6829   14.8375 C.ar    1  UNL1        0.0233
     17 C          64.7187   89.1713   14.9137 C.ar    1  UNL1        0.0399
     18 C          64.1821   90.0445   13.8184 C.ar    1  UNL1        0.1580
     19 C          63.4758   89.4292   12.6468 C.ar    1  UNL1        0.1354
     20 N          63.3061   87.9407   12.5706 N.ar    1  UNL1       -0.2396
     21 O          64.3518   91.5328   13.8947 O.3     1  UNL1       -0.4650
     22 C          65.7203   92.1380   13.7898 C.3     1  UNL1        0.3082
     23 C          66.6476   92.1044   14.9684 C.3     1  UNL1        0.4380
     24 F          67.5749   92.0708   16.1470 F       1  UNL1       -0.1663
     25 F          65.5011   92.4285   15.8796 F       1  UNL1       -0.1663
     26 F          67.7941   91.7803   14.0570 F       1  UNL1       -0.1663
     27 C          63.6528   83.9974   15.0029 C.3     1  UNL1        0.1679
     28 N          62.8073   84.8552   15.8969 N.ar    1  UNL1       -0.2078
     29 C          63.2841   85.6121   17.1010 C.ar    1  UNL1        0.2216
     30 N          62.1080   86.3314   17.6921 N.ar    1  UNL1       -0.1048
     31 N          60.9043   86.0191   16.8533 N.ar    1  UNL1       -0.0226
     32 N          61.3365   85.1067   15.7439 N.ar    1  UNL1       -0.0428
@<TRIPOS>BOND
     1     1     2    1
     2     2    27    1
     3    27    28    1
     4    28    29   ar
     5    29    30   ar
     6    30    31   ar
     7    31    32   ar
     8     2     4    1
     9     4     5   ar
    10     5     6   ar
    11     6     7   ar
    12     7     8    1
    13     7     9   ar
    14     9    10   ar
    15    10    11    1
    16     2    12    1
    17    12    13    1
    18    12    14    1
    19    12    15    1
    20    15    16   ar
    21    16    17   ar
    22    17    18   ar
    23    18    21    1
    24    21    22    1
    25    22    23    1
    26    23    24    1
    27    23    25    1
    28    23    26    1
    29    18    19   ar
    30    19    20   ar
    31    32    28   ar
    32    10     4   ar
    33    20    15   ar
    34     1     3    1
