@<TRIPOS>MOLECULE
*****
 37 40 0 0 0
SMALL
GASTEIGER

@<TRIPOS>ATOM
      1 N          63.6980   86.3064   13.2806 N.ar    1  UNL1       -0.3063
      2 C          63.0040   85.4654   12.2506 C.ar    1  UNL1        0.1240
      3 C          62.4329   86.3833   11.2108 C.ar    1  UNL1        0.1156
      4 C          62.7739   87.7917   11.5982 C.ar    1  UNL1        0.0966
      5 C          63.5558   87.7442   12.8774 C.ar    1  UNL1        0.1349
      6 C          64.0372   89.0163   13.5098 C.ar    1  UNL1        0.2819
      7 O          64.8191   88.9689   14.7891 O.2     1  UNL1       -0.2652
      8 N          63.7368   90.3359   12.8629 N.ar    1  UNL1       -0.2417
      9 C          62.9549   90.3834   11.5838 C.ar    1  UNL1        0.3342
     10 O          62.6545   91.7030   10.9369 O.2     1  UNL1       -0.2462
     11 N          62.4735   89.1113   10.9513 N.ar    1  UNL1       -0.2770
     12 C          61.6916   89.1588    9.6721 C.3     1  UNL1        0.1351
     13 N          62.8995   83.9690   12.2589 N.pl3   1  UNL1       -0.2926
     14 C          63.3584   83.1785   11.0696 C.3     1  UNL1        0.0922
     15 C          63.2539   81.6822   11.0778 C.3     1  UNL1        0.0229
     16 C          62.6905   80.9763   12.2754 C.3     1  UNL1        0.0190
     17 C          62.2317   81.7668   13.4648 C.3     1  UNL1        0.0709
     18 N          61.6683   81.0610   14.6624 N.3     1  UNL1       -0.3208
     19 C          62.3361   83.2632   13.4566 C.3     1  UNL1        0.1075
     20 H          61.4094   81.7474   15.3711 H       1  UNL1        0.1189
     21 H          62.3696   80.4263   15.0441 H       1  UNL1        0.1189
     22 C          61.6570   85.9660    9.9967 C.1     1  UNL1        0.1047
     23 N          60.8811   85.5488    8.7827 N.1     1  UNL1       -0.1907
     24 C          64.4093   85.7989   14.4998 C.3     1  UNL1        0.1332
     25 C          62.7300   86.5055   18.0256 C.3     1  UNL1        0.0261
     26 C          63.0075   85.8916   16.6853 C.2     1  UNL1       -0.0460
     27 C          62.1608   84.7567   16.1904 C.3     1  UNL1        0.0261
     28 C          64.1318   86.4127   15.8400 C.2     1  UNL1       -0.0102
     29 C          64.2182   91.6081   13.4954 C.3     1  UNL1        0.1600
     30 C          65.6866   91.8337   13.7027 C.ar    1  UNL1        0.0916
     31 N          66.6412   91.6581   12.5590 N.ar    1  UNL1       -0.2455
     32 C          68.1095   91.8837   12.7663 C.ar    1  UNL1        0.0986
     33 C          68.6233   92.2848   14.1174 C.ar    1  UNL1        0.0213
     34 C          67.6688   92.4603   15.2610 C.ar    1  UNL1        0.0131
     35 C          66.2004   92.2347   15.0537 C.ar    1  UNL1        0.0839
     36 C          65.2457   92.4102   16.1973 C.1     1  UNL1        0.1017
     37 N          64.2912   92.5857   17.3409 N.1     1  UNL1       -0.1908
@<TRIPOS>BOND
     1    25    26    1
     2    26    27    1
     3    26    28    2
     4    28    24    1
     5    24     1    1
     6     1     2   ar
     7     2    13    1
     8    13    14    1
     9    14    15    1
    10    15    16    1
    11    16    17    1
    12    17    18    1
    13    17    19    1
    14     2     3   ar
    15     3    22    1
    16    22    23    3
    17     3     4   ar
    18     4     5   ar
    19     5     6   ar
    20     6     7    2
    21     6     8   ar
    22     8    29    1
    23    29    30    1
    24    30    31   ar
    25    31    32   ar
    26    32    33   ar
    27    33    34   ar
    28    34    35   ar
    29    35    36    1
    30    36    37    3
    31     8     9   ar
    32     9    10    2
    33     9    11   ar
    34    11    12    1
    35     5     1   ar
    36    35    30   ar
    37    19    13    1
    38    11     4   ar
    39    18    20    1
    40    18    21    1
@<TRIPOS>MOLECULE
*****
 37 40 0 0 0
SMALL
GASTEIGER

@<TRIPOS>ATOM
      1 N          63.6776   86.2864   13.2852 N.ar    1  UNL1       -0.3063
      2 C          63.0179   85.4468   12.2317 C.ar    1  UNL1        0.1240
      3 C          62.4263   86.3690   11.2071 C.ar    1  UNL1        0.1156
      4 C          62.7204   87.7785   11.6275 C.ar    1  UNL1        0.0966
      5 C          63.4937   87.7274   12.9118 C.ar    1  UNL1        0.1349
      6 C          63.9306   88.9998   13.5753 C.ar    1  UNL1        0.2819
      7 O          64.7039   88.9488   14.8596 O.2     1  UNL1       -0.2652
      8 N          63.5941   90.3232   12.9544 N.ar    1  UNL1       -0.2417
      9 C          62.8209   90.3743   11.6702 C.ar    1  UNL1        0.3342
     10 O          62.4844   91.6977   11.0493 O.2     1  UNL1       -0.2462
     11 N          62.3840   89.1019   11.0067 N.ar    1  UNL1       -0.2770
     12 C          61.6107   89.1530    9.7224 C.3     1  UNL1        0.1351
     13 N          62.9599   83.9481   12.2070 N.pl3   1  UNL1       -0.2926
     14 C          63.4324   83.1991   10.9963 C.3     1  UNL1        0.0922
     15 C          63.3744   81.7004   10.9716 C.3     1  UNL1        0.0229
     16 C          62.8439   80.9507   12.1575 C.3     1  UNL1        0.0190
     17 C          62.3714   81.6997   13.3682 C.3     1  UNL1        0.0709
     18 N          61.8409   80.9501   14.5542 N.3     1  UNL1       -0.3208
     19 C          62.4294   83.1984   13.3930 C.3     1  UNL1        0.1075
     20 H          61.5672   81.6121   15.2802 H       1  UNL1        0.1189
     21 H          62.5650   80.3291   14.9156 H       1  UNL1        0.1189
     22 C          61.6730   85.9544    9.9781 C.1     1  UNL1        0.1047
     23 N          60.9196   85.5398    8.7490 N.1     1  UNL1       -0.1907
     24 C          64.3951   85.7747   14.4990 C.3     1  UNL1        0.1332
     25 C          62.7208   86.4854   18.0263 C.3     1  UNL1        0.0261
     26 C          62.9910   85.8757   16.6827 C.2     1  UNL1       -0.0460
     27 C          62.1275   84.7574   16.1792 C.3     1  UNL1        0.0261
     28 C          64.1248   86.3844   15.8426 C.2     1  UNL1       -0.0102
     29 C          64.0310   91.5957   13.6180 C.3     1  UNL1        0.1600
     30 C          65.4806   91.8178   13.9330 C.ar    1  UNL1        0.0916
     31 N          65.9943   91.5639   15.3193 N.ar    1  UNL1       -0.2455
     32 C          67.4439   91.7861   15.6343 C.ar    1  UNL1        0.0986
     33 C          68.3798   92.2622   14.5630 C.ar    1  UNL1        0.0213
     34 C          67.8661   92.5161   13.1769 C.ar    1  UNL1        0.0131
     35 C          66.4165   92.2940   12.8618 C.ar    1  UNL1        0.0839
     36 C          65.9027   92.5479   11.4756 C.1     1  UNL1        0.1017
     37 N          65.3890   92.8018   10.0895 N.1     1  UNL1       -0.1908
@<TRIPOS>BOND
     1    25    26    1
     2    26    27    1
     3    26    28    2
     4    28    24    1
     5    24     1    1
     6     1     2   ar
     7     2    13    1
     8    13    14    1
     9    14    15    1
    10    15    16    1
    11    16    17    1
    12    17    18    1
    13    17    19    1
    14     2     3   ar
    15     3    22    1
    16    22    23    3
    17     3     4   ar
    18     4     5   ar
    19     5     6   ar
    20     6     7    2
    21     6     8   ar
    22     8    29    1
    23    29    30    1
    24    30    31   ar
    25    31    32   ar
    26    32    33   ar
    27    33    34   ar
    28    34    35   ar
    29    35    36    1
    30    36    37    3
    31     8     9   ar
    32     9    10    2
    33     9    11   ar
    34    11    12    1
    35     5     1   ar
    36    35    30   ar
    37    19    13    1
    38    11     4   ar
    39    18    20    1
    40    18    21    1
@<TRIPOS>MOLECULE
*****
 37 40 0 0 0
SMALL
GASTEIGER

@<TRIPOS>ATOM
      1 N          64.6951   91.6159   12.0528 N.ar    1  UNL1       -0.3063
      2 C          65.0106   91.5244   13.5164 C.ar    1  UNL1        0.1240
      3 C          63.8632   90.8374   14.1959 C.ar    1  UNL1        0.1156
      4 C          62.8387   90.5043   13.1522 C.ar    1  UNL1        0.0966
      5 C          63.3528   90.9854   11.8277 C.ar    1  UNL1        0.1349
      6 C          62.5322   90.7873   10.5878 C.ar    1  UNL1        0.2819
      7 O          63.0463   91.2684    9.2633 O.2     1  UNL1       -0.2652
      8 N          61.1975   90.1080   10.6724 N.ar    1  UNL1       -0.2417
      9 C          60.6834   89.6269   11.9968 C.ar    1  UNL1        0.3342
     10 O          59.3486   88.9476   12.0815 O.2     1  UNL1       -0.2462
     11 N          61.5040   89.8251   13.2367 N.ar    1  UNL1       -0.2770
     12 C          60.9898   89.3439   14.5612 C.3     1  UNL1        0.1351
     13 N          66.2549   92.0310   14.1834 N.pl3   1  UNL1       -0.2926
     14 C          66.1586   92.7876   15.4750 C.3     1  UNL1        0.0922
     15 C          67.4030   93.2942   16.1422 C.3     1  UNL1        0.0229
     16 C          68.7436   93.0442   15.5176 C.3     1  UNL1        0.0190
     17 C          68.8400   92.2876   14.2260 C.3     1  UNL1        0.0709
     18 N          70.1806   92.0376   13.6015 N.3     1  UNL1       -0.3208
     19 C          67.5956   91.7810   13.5589 C.3     1  UNL1        0.1075
     20 H          70.0596   91.5133   12.7349 H       1  UNL1        0.1189
     21 H          70.7609   91.5003   14.2457 H       1  UNL1        0.1189
     22 C          63.7589   90.5364   15.6616 C.1     1  UNL1        0.1047
     23 N          63.6545   90.2354   17.1274 N.1     1  UNL1       -0.1907
     24 C          65.5686   92.2300   10.9993 C.3     1  UNL1        0.1332
     25 C          66.9523   95.8204   10.0275 C.3     1  UNL1        0.0261
     26 C          66.8188   94.3289   10.1152 C.2     1  UNL1       -0.0460
     27 C          67.8020   93.4449    9.4068 C.3     1  UNL1        0.0261
     28 C          65.7021   93.7214   10.9115 C.2     1  UNL1       -0.0102
     29 C          60.3768   89.9098    9.4325 C.3     1  UNL1        0.1600
     30 C          60.2691   88.5474    8.8142 C.ar    1  UNL1        0.0916
     31 N          60.7866   87.3470    9.5498 N.ar    1  UNL1       -0.2455
     32 C          60.6789   85.9846    8.9315 C.ar    1  UNL1        0.0986
     33 C          60.0537   85.8227    7.5776 C.ar    1  UNL1        0.0213
     34 C          59.5363   87.0231    6.8420 C.ar    1  UNL1        0.0131
     35 C          59.6440   88.3856    7.4603 C.ar    1  UNL1        0.0839
     36 C          59.1265   89.5861    6.7247 C.1     1  UNL1        0.1017
     37 N          58.6091   90.7865    5.9893 N.1     1  UNL1       -0.1908
@<TRIPOS>BOND
     1    25    26    1
     2    26    27    1
     3    26    28    2
     4    28    24    1
     5    24     1    1
     6     1     2   ar
     7     2    13    1
     8    13    14    1
     9    14    15    1
    10    15    16    1
    11    16    17    1
    12    17    18    1
    13    17    19    1
    14     2     3   ar
    15     3    22    1
    16    22    23    3
    17     3     4   ar
    18     4     5   ar
    19     5     6   ar
    20     6     7    2
    21     6     8   ar
    22     8    29    1
    23    29    30    1
    24    30    31   ar
    25    31    32   ar
    26    32    33   ar
    27    33    34   ar
    28    34    35   ar
    29    35    36    1
    30    36    37    3
    31     8     9   ar
    32     9    10    2
    33     9    11   ar
    34    11    12    1
    35     5     1   ar
    36    35    30   ar
    37    19    13    1
    38    11     4   ar
    39    18    20    1
    40    18    21    1
@<TRIPOS>MOLECULE
*****
 37 40 0 0 0
SMALL
GASTEIGER

@<TRIPOS>ATOM
      1 N          63.6046   86.1590   13.3055 N.ar    1  UNL1       -0.3063
      2 C          62.9164   85.2590   12.3225 C.ar    1  UNL1        0.1240
      3 C          62.3099   86.1184   11.2530 C.ar    1  UNL1        0.1156
      4 C          62.6233   87.5495   11.5751 C.ar    1  UNL1        0.0966
      5 C          63.4234   87.5746   12.8436 C.ar    1  UNL1        0.1349
      6 C          63.8838   88.8832   13.4142 C.ar    1  UNL1        0.2819
      7 O          64.6840   88.9083   14.6827 O.2     1  UNL1       -0.2652
      8 N          63.5438   90.1667   12.7163 N.ar    1  UNL1       -0.2417
      9 C          62.7437   90.1416   11.4478 C.ar    1  UNL1        0.3342
     10 O          62.4038   91.4251   10.7499 O.2     1  UNL1       -0.2462
     11 N          62.2834   88.8330   10.8772 N.ar    1  UNL1       -0.2770
     12 C          61.4832   88.8079    9.6087 C.3     1  UNL1        0.1351
     13 N          62.8468   83.7624   12.3959 N.pl3   1  UNL1       -0.2926
     14 C          62.4983   83.0905   13.6909 C.3     1  UNL1        0.0922
     15 C          62.4287   81.5939   13.7645 C.3     1  UNL1        0.0229
     16 C          62.7077   80.7692   12.5429 C.3     1  UNL1        0.0190
     17 C          63.0562   81.4412   11.2480 C.3     1  UNL1        0.0709
     18 N          63.3352   80.6165   10.0265 N.3     1  UNL1       -0.3208
     19 C          63.1258   82.9378   11.1744 C.3     1  UNL1        0.1075
     20 H          63.5532   81.2323    9.2430 H       1  UNL1        0.1189
     21 H          62.5138   80.0558    9.7999 H       1  UNL1        0.1189
     22 C          61.5274   85.6320   10.0693 C.1     1  UNL1        0.1047
     23 N          60.7449   85.1456    8.8856 N.1     1  UNL1       -0.1907
     24 C          64.3441   85.7204   14.5346 C.3     1  UNL1        0.1332
     25 C          62.7192   86.6057   18.0455 C.3     1  UNL1        0.0261
     26 C          62.9753   85.9254   16.7333 C.2     1  UNL1       -0.0460
     27 C          62.1187   84.7700   16.3078 C.3     1  UNL1        0.0261
     28 C          64.0880   86.4006   15.8467 C.2     1  UNL1       -0.0102
     29 C          64.0042   91.4754   13.2869 C.3     1  UNL1        0.1600
     30 C          65.0249   92.2953   12.5548 C.ar    1  UNL1        0.0916
     31 N          64.9547   92.4214   11.0617 N.ar    1  UNL1       -0.2455
     32 C          65.9754   93.2413   10.3296 C.ar    1  UNL1        0.0986
     33 C          67.0662   93.9351   11.0905 C.ar    1  UNL1        0.0213
     34 C          67.1363   93.8089   12.5835 C.ar    1  UNL1        0.0131
     35 C          66.1156   92.9890   13.3157 C.ar    1  UNL1        0.0839
     36 C          66.1857   92.8628   14.8088 C.1     1  UNL1        0.1017
     37 N          66.2557   92.7367   16.3017 N.1     1  UNL1       -0.1908
@<TRIPOS>BOND
     1    25    26    1
     2    26    27    1
     3    26    28    2
     4    28    24    1
     5    24     1    1
     6     1     2   ar
     7     2    13    1
     8    13    14    1
     9    14    15    1
    10    15    16    1
    11    16    17    1
    12    17    18    1
    13    17    19    1
    14     2     3   ar
    15     3    22    1
    16    22    23    3
    17     3     4   ar
    18     4     5   ar
    19     5     6   ar
    20     6     7    2
    21     6     8   ar
    22     8    29    1
    23    29    30    1
    24    30    31   ar
    25    31    32   ar
    26    32    33   ar
    27    33    34   ar
    28    34    35   ar
    29    35    36    1
    30    36    37    3
    31     8     9   ar
    32     9    10    2
    33     9    11   ar
    34    11    12    1
    35     5     1   ar
    36    35    30   ar
    37    19    13    1
    38    11     4   ar
    39    18    20    1
    40    18    21    1
@<TRIPOS>MOLECULE
*****
 37 40 0 0 0
SMALL
GASTEIGER

@<TRIPOS>ATOM
      1 N          63.0205   85.8571   11.5626 N.ar    1  UNL1       -0.3063
      2 C          63.2486   84.6118   12.3670 C.ar    1  UNL1        0.1240
      3 C          63.5874   85.0215   13.7697 C.ar    1  UNL1        0.1156
      4 C          63.5686   86.5201   13.8321 C.ar    1  UNL1        0.0966
      5 C          63.2182   87.0365   12.4680 C.ar    1  UNL1        0.1349
      6 C          63.1246   88.5139   12.2267 C.ar    1  UNL1        0.2819
      7 O          62.7742   89.0304   10.8626 O.2     1  UNL1       -0.2652
      8 N          63.3812   89.4750   13.3494 N.ar    1  UNL1       -0.2417
      9 C          63.7315   88.9587   14.7134 C.ar    1  UNL1        0.3342
     10 O          63.9882   89.9198   15.8362 O.2     1  UNL1       -0.2462
     11 N          63.8252   87.4812   14.9548 N.ar    1  UNL1       -0.2770
     12 C          64.1756   86.9648   16.3188 C.3     1  UNL1        0.1351
     13 N          63.1545   83.2038   11.8582 N.pl3   1  UNL1       -0.2926
     14 C          63.5625   82.8864   10.4501 C.3     1  UNL1        0.0922
     15 C          63.4684   81.4785    9.9412 C.3     1  UNL1        0.0229
     16 C          62.9664   80.3880   10.8405 C.3     1  UNL1        0.0190
     17 C          62.5584   80.7054   12.2486 C.3     1  UNL1        0.0709
     18 N          62.0564   79.6149   13.1479 N.3     1  UNL1       -0.3208
     19 C          62.6525   82.1133   12.7575 C.3     1  UNL1        0.1075
     20 H          61.8264   80.0063   14.0613 H       1  UNL1        0.1189
     21 H          62.7790   78.9031   13.2552 H       1  UNL1        0.1189
     22 C          63.8915   84.0953   14.9097 C.1     1  UNL1        0.1047
     23 N          64.1956   83.1691   16.0497 N.1     1  UNL1       -0.1907
     24 C          62.6582   85.9131   10.1081 C.3     1  UNL1        0.1332
     25 C          59.4228   86.5230    7.8921 C.3     1  UNL1        0.0261
     26 C          60.7925   86.0738    8.3071 C.2     1  UNL1       -0.0460
     27 C          61.6661   85.3361    7.3363 C.3     1  UNL1        0.0261
     28 C          61.2886   86.3623    9.6930 C.2     1  UNL1       -0.0102
     29 C          63.2875   90.9526   13.1080 C.3     1  UNL1        0.1600
     30 C          64.4014   91.6697   12.4044 C.ar    1  UNL1        0.0916
     31 N          64.4609   91.6752   10.9056 N.ar    1  UNL1       -0.2455
     32 C          65.5748   92.3923   10.2019 C.ar    1  UNL1        0.0986
     33 C          66.6290   93.1039   10.9971 C.ar    1  UNL1        0.0213
     34 C          66.5695   93.0984   12.4959 C.ar    1  UNL1        0.0131
     35 C          65.4556   92.3812   13.1996 C.ar    1  UNL1        0.0839
     36 C          65.3960   92.3757   14.6984 C.1     1  UNL1        0.1017
     37 N          65.3363   92.3701   16.1971 N.1     1  UNL1       -0.1908
@<TRIPOS>BOND
     1    25    26    1
     2    26    27    1
     3    26    28    2
     4    28    24    1
     5    24     1    1
     6     1     2   ar
     7     2    13    1
     8    13    14    1
     9    14    15    1
    10    15    16    1
    11    16    17    1
    12    17    18    1
    13    17    19    1
    14     2     3   ar
    15     3    22    1
    16    22    23    3
    17     3     4   ar
    18     4     5   ar
    19     5     6   ar
    20     6     7    2
    21     6     8   ar
    22     8    29    1
    23    29    30    1
    24    30    31   ar
    25    31    32   ar
    26    32    33   ar
    27    33    34   ar
    28    34    35   ar
    29    35    36    1
    30    36    37    3
    31     8     9   ar
    32     9    10    2
    33     9    11   ar
    34    11    12    1
    35     5     1   ar
    36    35    30   ar
    37    19    13    1
    38    11     4   ar
    39    18    20    1
    40    18    21    1
@<TRIPOS>MOLECULE
*****
 37 40 0 0 0
SMALL
GASTEIGER

@<TRIPOS>ATOM
      1 N          62.9277   85.6152   11.5742 N.ar    1  UNL1       -0.3063
      2 C          63.2288   84.3870   12.3810 C.ar    1  UNL1        0.1240
      3 C          63.6306   84.8242   13.7584 C.ar    1  UNL1        0.1156
      4 C          63.5778   86.3226   13.8030 C.ar    1  UNL1        0.0966
      5 C          63.1434   86.8114   12.4530 C.ar    1  UNL1        0.1349
      6 C          63.0004   88.2827   12.1985 C.ar    1  UNL1        0.2819
      7 O          62.5660   88.7716   10.8485 O.2     1  UNL1       -0.2652
      8 N          63.2918   89.2652   13.2939 N.ar    1  UNL1       -0.2417
      9 C          63.7262   88.7763   14.6438 C.ar    1  UNL1        0.3342
     10 O          64.0176   89.7588   15.7393 O.2     1  UNL1       -0.2462
     11 N          63.8692   87.3050   14.8984 N.ar    1  UNL1       -0.2770
     12 C          64.3036   86.8162   16.2483 C.3     1  UNL1        0.1351
     13 N          63.1431   82.9703   11.8955 N.pl3   1  UNL1       -0.2926
     14 C          63.5759   82.6279   10.5007 C.3     1  UNL1        0.0922
     15 C          63.4903   81.2112   10.0152 C.3     1  UNL1        0.0229
     16 C          62.9719   80.1369   10.9246 C.3     1  UNL1        0.0190
     17 C          62.5390   80.4792   12.3193 C.3     1  UNL1        0.0709
     18 N          62.0206   79.4049   13.2287 N.3     1  UNL1       -0.3208
     19 C          62.6247   81.8959   12.8049 C.3     1  UNL1        0.1075
     20 H          61.7746   79.8124   14.1308 H       1  UNL1        0.1189
     21 H          62.7408   78.6949   13.3614 H       1  UNL1        0.1189
     22 C          64.0173   83.9214   14.8923 C.1     1  UNL1        0.1047
     23 N          64.4039   83.0187   16.0261 N.1     1  UNL1       -0.1907
     24 C          62.4881   85.6423   10.1403 C.3     1  UNL1        0.1332
     25 C          59.2917   86.6380    8.0091 C.3     1  UNL1        0.0261
     26 C          60.6383   86.0844    8.3704 C.2     1  UNL1       -0.0460
     27 C          61.4814   85.4195    7.3230 C.3     1  UNL1        0.0261
     28 C          61.1416   86.1958    9.7790 C.2     1  UNL1       -0.0102
     29 C          63.1487   90.7365   13.0394 C.3     1  UNL1        0.1600
     30 C          64.3404   91.5440   12.6174 C.ar    1  UNL1        0.0916
     31 N          65.3677   91.9511   13.6318 N.ar    1  UNL1       -0.2455
     32 C          66.5593   92.7586   13.2098 C.ar    1  UNL1        0.0986
     33 C          66.7236   93.1589   11.7735 C.ar    1  UNL1        0.0213
     34 C          65.6963   92.7518   10.7593 C.ar    1  UNL1        0.0131
     35 C          64.5046   91.9443   11.1812 C.ar    1  UNL1        0.0839
     36 C          63.4772   91.5372   10.1669 C.1     1  UNL1        0.1017
     37 N          62.4499   91.1300    9.1527 N.1     1  UNL1       -0.1908
@<TRIPOS>BOND
     1    25    26    1
     2    26    27    1
     3    26    28    2
     4    28    24    1
     5    24     1    1
     6     1     2   ar
     7     2    13    1
     8    13    14    1
     9    14    15    1
    10    15    16    1
    11    16    17    1
    12    17    18    1
    13    17    19    1
    14     2     3   ar
    15     3    22    1
    16    22    23    3
    17     3     4   ar
    18     4     5   ar
    19     5     6   ar
    20     6     7    2
    21     6     8   ar
    22     8    29    1
    23    29    30    1
    24    30    31   ar
    25    31    32   ar
    26    32    33   ar
    27    33    34   ar
    28    34    35   ar
    29    35    36    1
    30    36    37    3
    31     8     9   ar
    32     9    10    2
    33     9    11   ar
    34    11    12    1
    35     5     1   ar
    36    35    30   ar
    37    19    13    1
    38    11     4   ar
    39    18    20    1
    40    18    21    1
