@<TRIPOS>MOLECULE
*****
 56 61 0 0 0
SMALL
GASTEIGER

@<TRIPOS>ATOM
      1 C          62.6565   85.2673   10.2136 C.3     1  UNL1        0.1269
      2 O          63.5063   84.7696    9.0822 O.3     1  UNL1       -0.3830
      3 H          63.7971   85.5207    8.5416 H       1  UNL1        0.2104
      4 C          62.0787   84.2970   11.2009 C.3     1  UNL1        0.0401
      5 C          62.8386   83.9536   12.4477 C.3     1  UNL1        0.0833
      6 O          61.3106   84.5798   14.4535 O.2     1  UNL1       -0.2751
      7 C          62.6032   84.7324   13.7079 C.2     1  UNL1        0.2226
      8 N          63.6604   85.6639   14.2225 N.am    1  UNL1       -0.2999
      9 H          64.5087   85.7641   13.7331 H       1  UNL1        0.1498
     10 C          63.4250   86.4427   15.4827 C.3     1  UNL1        0.1278
     11 C          63.6378   87.9274   15.4976 C.ar    1  UNL1        0.0320
     12 C          64.0861   88.6334   14.2524 C.ar    1  UNL1        0.0004
     13 C          64.2989   90.1181   14.2673 C.ar    1  UNL1       -0.0001
     14 C          64.0635   90.8969   15.5275 C.ar    1  UNL1        0.0031
     15 C          63.6153   90.1909   16.7727 C.ar    1  UNL1        0.0366
     16 C          63.4025   88.7062   16.7578 C.ar    1  UNL1        0.1362
     17 O          62.9542   88.0002   18.0031 O.3     1  UNL1       -0.4730
     18 C          62.7414   86.5155   17.9882 C.3     1  UNL1        0.2364
     19 C          62.9768   85.7367   16.7279 C.3     1  UNL1        0.1762
     20 O          62.7639   84.2519   16.7130 O.3     1  UNL1       -0.3788
     21 H          62.4774   83.9575   17.5917 H       1  UNL1        0.2106
     22 C          63.8339   82.8315   12.4344 C.3     1  UNL1        0.0356
     23 C          63.4247   81.4717   11.9513 C.ar    1  UNL1       -0.0186
     24 C          62.9265   80.4475   12.9274 C.ar    1  UNL1        0.0164
     25 C          62.5173   79.0877   12.4442 C.ar    1  UNL1        0.0986
     26 N          62.6063   78.7521   10.9850 N.ar    1  UNL1       -0.2423
     27 C          63.1045   79.7763   10.0089 C.ar    1  UNL1        0.0986
     28 C          63.5137   81.1361   10.4920 C.ar    1  UNL1        0.0164
     29 C          62.3846   86.7354   10.3579 C.3     1  UNL1        0.1021
     30 N          61.3805   87.4034    9.4658 N.3     1  UNL1       -0.2621
     31 C          60.6537   86.6046    8.4247 C.3     1  UNL1        0.0901
     32 C          59.6497   87.2726    7.5326 C.3     1  UNL1        0.0900
     33 N          59.3725   88.7392    7.6817 N.3     1  UNL1       -0.2635
     34 C          60.0993   89.5379    8.7227 C.3     1  UNL1        0.0980
     35 C          61.1033   88.8700    9.6148 C.3     1  UNL1        0.1510
     36 C          61.8301   89.6686   10.6559 C.2     1  UNL1        0.2386
     37 O          61.3067   89.7225   12.0606 O.2     1  UNL1       -0.2736
     38 N          63.0804   90.4134   10.2923 N.am    1  UNL1       -0.2961
     39 H          63.4240   90.3780    9.3704 H       1  UNL1        0.1497
     40 C          63.8072   91.2120   11.3334 C.3     1  UNL1        0.1939
     41 C          64.7125   92.3347   10.9208 C.3     1  UNL1        0.4154
     42 F          65.6178   93.4573   10.5082 F       1  UNL1       -0.1682
     43 F          65.5734   92.0823   12.1229 F       1  UNL1       -0.1682
     44 F          63.8516   92.5871    9.7187 F       1  UNL1       -0.1682
     45 C          58.3685   89.4072    6.7896 C.3     1  UNL1        0.1377
     46 C          58.8221   90.4029    5.7634 C.ar    1  UNL1        0.1390
     47 C          57.9895   91.5022    5.1732 C.ar    1  UNL1        0.0375
     48 C          58.8407   92.2528    4.1924 C.ar    1  UNL1        0.0403
     49 C          60.1994   91.6174    4.1765 C.ar    1  UNL1        0.1449
     50 O          60.1879   90.4741    5.1474 O.2     1  UNL1       -0.4564
     51 C          61.3650   92.0494    3.3370 C.ar    1  UNL1        0.0345
     52 C          62.6792   91.3359    3.4543 C.ar    1  UNL1        0.0030
     53 C          63.8448   91.7680    2.6148 C.ar    1  UNL1        0.0001
     54 C          63.6961   92.9135    1.6580 C.ar    1  UNL1        0.0000
     55 C          62.3819   93.6270    1.5406 C.ar    1  UNL1        0.0001
     56 C          61.2164   93.1950    2.3801 C.ar    1  UNL1        0.0030
@<TRIPOS>BOND
     1     6     7    2
     2     7     8   am
     3    10     8    1
     4    10    11    1
     5    11    12   ar
     6    12    13   ar
     7    13    14   ar
     8    14    15   ar
     9    15    16   ar
    10    16    17    1
    11    17    18    1
    12    18    19    1
    13    19    20    1
    14     7     5    1
    15     5    22    1
    16    22    23    1
    17    23    24   ar
    18    24    25   ar
    19    25    26   ar
    20    26    27   ar
    21    27    28   ar
    22     5     4    1
    23     4     1    1
    24     1     2    1
    25     1    29    1
    26    29    30    1
    27    30    31    1
    28    31    32    1
    29    32    33    1
    30    33    45    1
    31    45    46    1
    32    46    47   ar
    33    47    48   ar
    34    48    49   ar
    35    49    51    1
    36    51    52   ar
    37    52    53   ar
    38    53    54   ar
    39    54    55   ar
    40    55    56   ar
    41    49    50   ar
    42    33    34    1
    43    34    35    1
    44    35    36    1
    45    36    37    2
    46    36    38   am
    47    38    40    1
    48    40    41    1
    49    41    42    1
    50    41    43    1
    51    41    44    1
    52    19    10    1
    53    28    23   ar
    54    35    30    1
    55    16    11   ar
    56    50    46   ar
    57    56    51   ar
    58     8     9    1
    59    20    21    1
    60     2     3    1
    61    38    39    1
@<TRIPOS>MOLECULE
*****
 56 61 0 0 0
SMALL
GASTEIGER

@<TRIPOS>ATOM
      1 C          63.2702   90.5051   12.1287 C.3     1  UNL1        0.1269
      2 O          62.4088   91.7129   11.9075 O.3     1  UNL1       -0.3830
      3 H          61.6368   91.4662   11.3746 H       1  UNL1        0.2104
      4 C          64.5339   90.6214   12.9285 C.3     1  UNL1        0.0401
      5 C          64.4866   90.5211   14.4244 C.3     1  UNL1        0.0833
      6 O          62.3703   89.5288   15.5588 O.2     1  UNL1       -0.2751
      7 C          63.7817   89.3690   15.0770 C.2     1  UNL1        0.2226
      8 N          64.4885   88.0569   15.2478 N.am    1  UNL1       -0.2999
      9 H          65.4149   87.9520   14.9316 H       1  UNL1        0.1498
     10 C          63.7837   86.9048   15.9003 C.3     1  UNL1        0.1278
     11 C          63.8034   85.5509   15.2551 C.ar    1  UNL1        0.0320
     12 C          64.5278   85.3490   13.9572 C.ar    1  UNL1        0.0004
     13 C          64.5475   83.9951   13.3120 C.ar    1  UNL1       -0.0001
     14 C          63.8428   82.8429   13.9645 C.ar    1  UNL1        0.0031
     15 C          63.1183   83.0448   15.2623 C.ar    1  UNL1        0.0366
     16 C          63.0987   84.3987   15.9076 C.ar    1  UNL1        0.1362
     17 O          62.3742   84.6005   17.2055 O.3     1  UNL1       -0.4730
     18 C          62.3545   85.9545   17.8508 C.3     1  UNL1        0.2364
     19 C          63.0593   87.1067   17.1982 C.3     1  UNL1        0.1762
     20 O          63.0396   88.4606   17.8435 O.3     1  UNL1       -0.3788
     21 H          62.5323   88.4180   18.6691 H       1  UNL1        0.2106
     22 C          65.1441   91.5730   15.2678 C.3     1  UNL1        0.0356
     23 C          66.5703   91.9587   15.0088 C.ar    1  UNL1       -0.0186
     24 C          67.3545   92.6831   16.0624 C.ar    1  UNL1        0.0164
     25 C          68.7808   93.0688   15.8034 C.ar    1  UNL1        0.0986
     26 N          69.4228   92.7300   14.4908 N.ar    1  UNL1       -0.2423
     27 C          68.6386   92.0055   13.4372 C.ar    1  UNL1        0.0986
     28 C          67.2124   91.6198   13.6961 C.ar    1  UNL1        0.0164
     29 C          62.8681   89.1808   11.5501 C.3     1  UNL1        0.1021
     30 N          61.9202   89.1266   10.3888 N.3     1  UNL1       -0.2621
     31 C          61.5582   90.3848    9.6567 C.3     1  UNL1        0.0901
     32 C          60.6104   90.3306    8.4954 C.3     1  UNL1        0.0900
     33 N          60.0246   89.0181    8.0661 N.3     1  UNL1       -0.2635
     34 C          60.3866   87.7599    8.7982 C.3     1  UNL1        0.0980
     35 C          61.3344   87.8142    9.9595 C.3     1  UNL1        0.1510
     36 C          61.6965   86.5560   10.6915 C.2     1  UNL1        0.2386
     37 O          61.4081   86.4323   12.1583 O.2     1  UNL1       -0.2736
     38 N          62.3469   85.4215    9.9567 N.am    1  UNL1       -0.2961
     39 H          62.5362   85.5026    8.9940 H       1  UNL1        0.1497
     40 C          62.7089   84.1633   10.6888 C.3     1  UNL1        0.1939
     41 C          63.7419   83.2358   10.1206 C.3     1  UNL1        0.4154
     42 F          64.7749   82.3083    9.5526 F       1  UNL1       -0.1682
     43 F          64.3071   84.3629    9.3081 F       1  UNL1       -0.1682
     44 F          63.1768   82.1087   10.9332 F       1  UNL1       -0.1682
     45 C          59.0767   88.9638    6.9048 C.3     1  UNL1        0.1377
     46 C          59.0669   90.0707    5.8924 C.ar    1  UNL1        0.1390
     47 C          57.8697   90.8713    5.4730 C.ar    1  UNL1        0.0375
     48 C          58.3154   91.8666    4.4431 C.ar    1  UNL1        0.0403
     49 C          59.7880   91.6811    4.2260 C.ar    1  UNL1        0.1449
     50 O          60.2524   90.5712    5.1217 O.2     1  UNL1       -0.4564
     51 C          60.6456   92.4676    3.2794 C.ar    1  UNL1        0.0345
     52 C          62.0795   92.0810    3.0689 C.ar    1  UNL1        0.0030
     53 C          62.9371   92.8675    2.1223 C.ar    1  UNL1        0.0001
     54 C          62.3607   94.0404    1.3862 C.ar    1  UNL1        0.0000
     55 C          60.9267   94.4270    1.5967 C.ar    1  UNL1        0.0001
     56 C          60.0692   93.6406    2.5432 C.ar    1  UNL1        0.0030
@<TRIPOS>BOND
     1     6     7    2
     2     7     8   am
     3    10     8    1
     4    10    11    1
     5    11    12   ar
     6    12    13   ar
     7    13    14   ar
     8    14    15   ar
     9    15    16   ar
    10    16    17    1
    11    17    18    1
    12    18    19    1
    13    19    20    1
    14     7     5    1
    15     5    22    1
    16    22    23    1
    17    23    24   ar
    18    24    25   ar
    19    25    26   ar
    20    26    27   ar
    21    27    28   ar
    22     5     4    1
    23     4     1    1
    24     1     2    1
    25     1    29    1
    26    29    30    1
    27    30    31    1
    28    31    32    1
    29    32    33    1
    30    33    45    1
    31    45    46    1
    32    46    47   ar
    33    47    48   ar
    34    48    49   ar
    35    49    51    1
    36    51    52   ar
    37    52    53   ar
    38    53    54   ar
    39    54    55   ar
    40    55    56   ar
    41    49    50   ar
    42    33    34    1
    43    34    35    1
    44    35    36    1
    45    36    37    2
    46    36    38   am
    47    38    40    1
    48    40    41    1
    49    41    42    1
    50    41    43    1
    51    41    44    1
    52    19    10    1
    53    28    23   ar
    54    35    30    1
    55    16    11   ar
    56    50    46   ar
    57    56    51   ar
    58     8     9    1
    59    20    21    1
    60     2     3    1
    61    38    39    1
@<TRIPOS>MOLECULE
*****
 56 61 0 0 0
SMALL
GASTEIGER

@<TRIPOS>ATOM
      1 C          62.1519   85.3200    8.6714 C.3     1  UNL1        0.1269
      2 O          62.0741   84.5000    7.4178 O.3     1  UNL1       -0.3830
      3 H          61.2598   84.7188    6.9384 H       1  UNL1        0.2104
      4 C          63.3238   85.1681    9.5954 C.3     1  UNL1        0.0401
      5 C          63.2252   84.2660   10.7897 C.3     1  UNL1        0.0833
      6 O          61.4481   85.3999   12.3083 O.2     1  UNL1       -0.2751
      7 C          62.8213   84.8261   12.1214 C.2     1  UNL1        0.2226
      8 N          63.7906   84.8123   13.2660 N.am    1  UNL1       -0.2999
      9 H          64.6919   84.4356   13.1433 H       1  UNL1        0.1498
     10 C          63.3867   85.3723   14.5976 C.3     1  UNL1        0.1278
     11 C          63.6050   86.8257   14.8975 C.ar    1  UNL1        0.0320
     12 C          64.2271   87.7191   13.8656 C.ar    1  UNL1        0.0004
     13 C          64.4454   89.1726   14.1655 C.ar    1  UNL1       -0.0001
     14 C          64.0415   89.7326   15.4971 C.ar    1  UNL1        0.0031
     15 C          63.4194   88.8391   16.5289 C.ar    1  UNL1        0.0366
     16 C          63.2011   87.3857   16.2291 C.ar    1  UNL1        0.1362
     17 O          62.5789   86.4922   17.2610 O.3     1  UNL1       -0.4730
     18 C          62.3607   85.0388   16.9612 C.3     1  UNL1        0.2364
     19 C          62.7646   84.4788   15.6294 C.3     1  UNL1        0.1762
     20 O          62.5464   83.0254   15.3296 O.3     1  UNL1       -0.3788
     21 H          62.1381   82.5947   16.0970 H       1  UNL1        0.2106
     22 C          63.5306   82.8039   10.6525 C.3     1  UNL1        0.0356
     23 C          63.4227   81.9000   11.8446 C.ar    1  UNL1       -0.0186
     24 C          64.6119   81.6855   12.7333 C.ar    1  UNL1        0.0164
     25 C          64.5040   80.7816   13.9255 C.ar    1  UNL1        0.0986
     26 N          63.2068   80.0922   14.2291 N.ar    1  UNL1       -0.2423
     27 C          62.0176   80.3068   13.3404 C.ar    1  UNL1        0.0986
     28 C          62.1255   81.2106   12.1482 C.ar    1  UNL1        0.0164
     29 C          61.0579   86.2918    9.0011 C.3     1  UNL1        0.1021
     30 N          61.3935   87.6197    9.6127 N.3     1  UNL1       -0.2621
     31 C          62.3848   87.6991   10.7357 C.3     1  UNL1        0.0901
     32 C          62.7204   89.0270   11.3473 C.3     1  UNL1        0.0900
     33 N          62.0646   90.2755   10.8359 N.3     1  UNL1       -0.2635
     34 C          61.0734   90.1960    9.7130 C.3     1  UNL1        0.0980
     35 C          60.7378   88.8681    9.1014 C.3     1  UNL1        0.1510
     36 C          59.7465   88.7886    7.9785 C.2     1  UNL1        0.2386
     37 O          58.7643   87.6562    7.9238 O.2     1  UNL1       -0.2736
     38 N          59.7374   89.8416    6.9101 N.am    1  UNL1       -0.2961
     39 H          60.3820   90.5848    6.9459 H       1  UNL1        0.1497
     40 C          58.7461   89.7621    5.7872 C.3     1  UNL1        0.1939
     41 C          58.1591   91.0181    5.2146 C.3     1  UNL1        0.4154
     42 F          57.5722   92.2742    4.6420 F       1  UNL1       -0.1682
     43 F          56.7807   90.5186    5.5317 F       1  UNL1       -0.1682
     44 F          59.5374   91.5177    4.8975 F       1  UNL1       -0.1682
     45 C          62.4002   91.6034   11.4475 C.3     1  UNL1        0.1377
     46 C          63.8295   91.9574   11.7341 C.ar    1  UNL1        0.1390
     47 C          64.8499   92.3913   10.7239 C.ar    1  UNL1        0.0375
     48 C          66.1403   92.6417   11.4466 C.ar    1  UNL1        0.0403
     49 C          65.9172   92.3626   12.9035 C.ar    1  UNL1        0.1449
     50 O          64.4891   91.9397   13.0812 O.2     1  UNL1       -0.4564
     51 C          66.9424   92.4850   13.9917 C.ar    1  UNL1        0.0345
     52 C          66.5203   92.8615   15.3809 C.ar    1  UNL1        0.0030
     53 C          67.5454   92.9839   16.4691 C.ar    1  UNL1        0.0001
     54 C          68.9927   92.7297   16.1679 C.ar    1  UNL1        0.0000
     55 C          69.4149   92.3531   14.7786 C.ar    1  UNL1        0.0001
     56 C          68.3897   92.2308   13.6906 C.ar    1  UNL1        0.0030
@<TRIPOS>BOND
     1     6     7    2
     2     7     8   am
     3    10     8    1
     4    10    11    1
     5    11    12   ar
     6    12    13   ar
     7    13    14   ar
     8    14    15   ar
     9    15    16   ar
    10    16    17    1
    11    17    18    1
    12    18    19    1
    13    19    20    1
    14     7     5    1
    15     5    22    1
    16    22    23    1
    17    23    24   ar
    18    24    25   ar
    19    25    26   ar
    20    26    27   ar
    21    27    28   ar
    22     5     4    1
    23     4     1    1
    24     1     2    1
    25     1    29    1
    26    29    30    1
    27    30    31    1
    28    31    32    1
    29    32    33    1
    30    33    45    1
    31    45    46    1
    32    46    47   ar
    33    47    48   ar
    34    48    49   ar
    35    49    51    1
    36    51    52   ar
    37    52    53   ar
    38    53    54   ar
    39    54    55   ar
    40    55    56   ar
    41    49    50   ar
    42    33    34    1
    43    34    35    1
    44    35    36    1
    45    36    37    2
    46    36    38   am
    47    38    40    1
    48    40    41    1
    49    41    42    1
    50    41    43    1
    51    41    44    1
    52    19    10    1
    53    28    23   ar
    54    35    30    1
    55    16    11   ar
    56    50    46   ar
    57    56    51   ar
    58     8     9    1
    59    20    21    1
    60     2     3    1
    61    38    39    1
@<TRIPOS>MOLECULE
*****
 56 61 0 0 0
SMALL
GASTEIGER

@<TRIPOS>ATOM
      1 C          62.6784   89.2469   12.5665 C.3     1  UNL1        0.1269
      2 O          62.7098   90.7351   12.3816 O.3     1  UNL1       -0.3830
      3 H          62.7752   90.9422   11.4362 H       1  UNL1        0.2104
      4 C          62.5794   88.6643   13.9452 C.3     1  UNL1        0.0401
      5 C          63.5732   89.0562   14.9981 C.3     1  UNL1        0.0833
      6 O          63.6682   91.5161   15.8286 O.2     1  UNL1       -0.2751
      7 C          64.2064   90.4156   14.9631 C.2     1  UNL1        0.2226
      8 N          65.3777   90.6745   14.0625 N.am    1  UNL1       -0.2999
      9 H          65.7309   89.9522   13.4944 H       1  UNL1        0.1498
     10 C          66.0108   92.0338   14.0275 C.3     1  UNL1        0.1278
     11 C          65.8984   92.8820   12.7954 C.ar    1  UNL1        0.0320
     12 C          65.1530   92.3708   11.5984 C.ar    1  UNL1        0.0004
     13 C          65.0406   93.2190   10.3663 C.ar    1  UNL1       -0.0001
     14 C          65.6737   94.5783   10.3313 C.ar    1  UNL1        0.0031
     15 C          66.4192   95.0895   11.5283 C.ar    1  UNL1        0.0366
     16 C          66.5315   94.2413   12.7604 C.ar    1  UNL1        0.1362
     17 O          67.2770   94.7526   13.9574 O.3     1  UNL1       -0.4730
     18 C          67.3894   93.9044   15.1895 C.3     1  UNL1        0.2364
     19 C          66.7562   92.5450   15.2245 C.3     1  UNL1        0.1762
     20 O          66.8686   91.6968   16.4566 O.3     1  UNL1       -0.3788
     21 H          67.3780   92.1725   17.1312 H       1  UNL1        0.2106
     22 C          63.9340   88.0886   16.0860 C.3     1  UNL1        0.0356
     23 C          63.9373   86.6146   15.8081 C.ar    1  UNL1       -0.0186
     24 C          62.9067   85.7292   16.4436 C.ar    1  UNL1        0.0164
     25 C          62.9100   84.2552   16.1657 C.ar    1  UNL1        0.0986
     26 N          63.9440   83.6665   15.2523 N.ar    1  UNL1       -0.2423
     27 C          64.9746   84.5519   14.6167 C.ar    1  UNL1        0.0986
     28 C          64.9713   86.0259   14.8947 C.ar    1  UNL1        0.0164
     29 C          62.7459   88.3413   11.3726 C.3     1  UNL1        0.1021
     30 N          61.7599   88.5007   10.2535 N.3     1  UNL1       -0.2621
     31 C          60.9901   89.7800   10.1088 C.3     1  UNL1        0.0901
     32 C          60.0041   89.9395    8.9897 C.3     1  UNL1        0.0900
     33 N          59.7879   88.8196    8.0154 N.3     1  UNL1       -0.2635
     34 C          60.5577   87.5404    8.1601 C.3     1  UNL1        0.0980
     35 C          61.5437   87.3810    9.2792 C.3     1  UNL1        0.1510
     36 C          62.3135   86.1018    9.4240 C.2     1  UNL1        0.2386
     37 O          63.1067   85.5688    8.2678 O.2     1  UNL1       -0.2736
     38 N          62.2901   85.3555   10.7250 N.am    1  UNL1       -0.2961
     39 H          61.7696   85.7052   11.4838 H       1  UNL1        0.1497
     40 C          63.0599   84.0762   10.8697 C.3     1  UNL1        0.1939
     41 C          62.6444   83.0627   11.8945 C.3     1  UNL1        0.4154
     42 F          62.2289   82.0492   12.9192 F       1  UNL1       -0.1682
     43 F          62.1777   84.1663   12.7969 F       1  UNL1       -0.1682
     44 F          63.1111   81.9591   10.9922 F       1  UNL1       -0.1682
     45 C          58.8019   88.9791    6.8963 C.3     1  UNL1        0.1377
     46 C          58.9754   90.0829    5.8954 C.ar    1  UNL1        0.1390
     47 C          57.9083   91.0313    5.4350 C.ar    1  UNL1        0.0375
     48 C          58.5197   91.9666    4.4343 C.ar    1  UNL1        0.0403
     49 C          59.9647   91.5962    4.2763 C.ar    1  UNL1        0.1449
     50 O          60.2463   90.4320    5.1793 O.2     1  UNL1       -0.4564
     51 C          60.9544   92.2715    3.3737 C.ar    1  UNL1        0.0345
     52 C          60.5302   93.4431    2.5388 C.ar    1  UNL1        0.0030
     53 C          61.5198   94.1184    1.6362 C.ar    1  UNL1        0.0001
     54 C          62.9336   93.6220    1.5687 C.ar    1  UNL1        0.0000
     55 C          63.3579   92.4503    2.4037 C.ar    1  UNL1        0.0001
     56 C          62.3682   91.7751    3.3062 C.ar    1  UNL1        0.0030
@<TRIPOS>BOND
     1     6     7    2
     2     7     8   am
     3    10     8    1
     4    10    11    1
     5    11    12   ar
     6    12    13   ar
     7    13    14   ar
     8    14    15   ar
     9    15    16   ar
    10    16    17    1
    11    17    18    1
    12    18    19    1
    13    19    20    1
    14     7     5    1
    15     5    22    1
    16    22    23    1
    17    23    24   ar
    18    24    25   ar
    19    25    26   ar
    20    26    27   ar
    21    27    28   ar
    22     5     4    1
    23     4     1    1
    24     1     2    1
    25     1    29    1
    26    29    30    1
    27    30    31    1
    28    31    32    1
    29    32    33    1
    30    33    45    1
    31    45    46    1
    32    46    47   ar
    33    47    48   ar
    34    48    49   ar
    35    49    51    1
    36    51    52   ar
    37    52    53   ar
    38    53    54   ar
    39    54    55   ar
    40    55    56   ar
    41    49    50   ar
    42    33    34    1
    43    34    35    1
    44    35    36    1
    45    36    37    2
    46    36    38   am
    47    38    40    1
    48    40    41    1
    49    41    42    1
    50    41    43    1
    51    41    44    1
    52    19    10    1
    53    28    23   ar
    54    35    30    1
    55    16    11   ar
    56    50    46   ar
    57    56    51   ar
    58     8     9    1
    59    20    21    1
    60     2     3    1
    61    38    39    1
@<TRIPOS>MOLECULE
*****
 56 61 0 0 0
SMALL
GASTEIGER

@<TRIPOS>ATOM
      1 C          62.5202   85.9579   11.4368 C.3     1  UNL1        0.1269
      2 O          62.3367   84.5105   11.0887 O.3     1  UNL1       -0.3830
      3 H          62.4751   84.3868   10.1366 H       1  UNL1        0.2104
      4 C          62.3592   86.4140   12.8566 C.3     1  UNL1        0.0401
      5 C          63.5431   86.4322   13.7774 C.3     1  UNL1        0.0833
      6 O          63.7204   87.4113   16.1774 O.2     1  UNL1       -0.2751
      7 C          63.7655   87.6016   14.6903 C.2     1  UNL1        0.2226
      8 N          64.0329   88.9612   14.1159 N.am    1  UNL1       -0.2999
      9 H          64.0624   89.0861   13.1398 H       1  UNL1        0.1498
     10 C          64.2552   90.1305   15.0286 C.3     1  UNL1        0.1278
     11 C          65.4752   90.9879   14.8656 C.ar    1  UNL1        0.0320
     12 C          66.4729   90.6759   13.7899 C.ar    1  UNL1        0.0004
     13 C          67.6929   91.5332   13.6269 C.ar    1  UNL1       -0.0001
     14 C          67.9152   92.7025   14.5397 C.ar    1  UNL1        0.0031
     15 C          66.9176   93.0145   15.6154 C.ar    1  UNL1        0.0366
     16 C          65.6976   92.1572   15.7784 C.ar    1  UNL1        0.1362
     17 O          64.6999   92.4692   16.8542 O.3     1  UNL1       -0.4730
     18 C          63.4799   91.6119   17.0172 C.3     1  UNL1        0.2364
     19 C          63.2576   90.4425   16.1044 C.3     1  UNL1        0.1762
     20 O          62.0376   89.5852   16.2674 O.3     1  UNL1       -0.3788
     21 H          61.5017   89.9218   17.0025 H       1  UNL1        0.2106
     22 C          64.5048   85.2811   13.7854 C.3     1  UNL1        0.0356
     23 C          63.9898   83.8732   13.7331 C.ar    1  UNL1       -0.0186
     24 C          62.8635   83.4528   14.6302 C.ar    1  UNL1        0.0164
     25 C          62.3486   82.0449   14.5779 C.ar    1  UNL1        0.0986
     26 N          62.9599   81.0575   13.6286 N.ar    1  UNL1       -0.2423
     27 C          64.0862   81.4779   12.7315 C.ar    1  UNL1        0.0986
     28 C          64.6012   82.8857   12.7838 C.ar    1  UNL1        0.0164
     29 C          62.8647   86.9492   10.3650 C.3     1  UNL1        0.1021
     30 N          61.7791   87.5505    9.5225 N.3     1  UNL1       -0.2621
     31 C          61.1052   86.7251    8.4666 C.3     1  UNL1        0.0901
     32 C          60.0196   87.3264    7.6241 C.3     1  UNL1        0.0900
     33 N          59.6078   88.7529    7.8374 N.3     1  UNL1       -0.2635
     34 C          60.2817   89.5782    8.8932 C.3     1  UNL1        0.0980
     35 C          61.3674   88.9770    9.7357 C.3     1  UNL1        0.1510
     36 C          62.0412   89.8022   10.7915 C.2     1  UNL1        0.2386
     37 O          61.6388   89.6550   12.2290 O.2     1  UNL1       -0.2736
     38 N          63.1176   90.7748   10.4099 N.am    1  UNL1       -0.2961
     39 H          63.3818   90.8715    9.4664 H       1  UNL1        0.1497
     40 C          63.7915   91.6001   11.4657 C.3     1  UNL1        0.1939
     41 C          65.0308   92.3770   11.1330 C.3     1  UNL1        0.4154
     42 F          66.2700   93.1539   10.8002 F       1  UNL1       -0.1682
     43 F          64.9511   93.0724   12.4596 F       1  UNL1       -0.1682
     44 F          65.1105   91.6817    9.8063 F       1  UNL1       -0.1682
     45 C          58.5222   89.3542    6.9948 C.3     1  UNL1        0.1377
     46 C          58.8689   90.3275    5.9073 C.ar    1  UNL1        0.1390
     47 C          57.9249   91.2931    5.2543 C.ar    1  UNL1        0.0375
     48 C          58.6930   92.0684    4.2254 C.ar    1  UNL1        0.0403
     49 C          60.1119   91.5819    4.2424 C.ar    1  UNL1        0.1449
     50 O          60.2206   90.5060    5.2819 O.2     1  UNL1       -0.4564
     51 C          61.2264   92.0834    3.3726 C.ar    1  UNL1        0.0345
     52 C          62.5666   91.4107    3.4086 C.ar    1  UNL1        0.0030
     53 C          63.6810   91.9121    2.5388 C.ar    1  UNL1        0.0001
     54 C          63.4553   93.0862    1.6331 C.ar    1  UNL1        0.0000
     55 C          62.1150   93.7590    1.5971 C.ar    1  UNL1        0.0001
     56 C          61.0007   93.2575    2.4669 C.ar    1  UNL1        0.0030
@<TRIPOS>BOND
     1     6     7    2
     2     7     8   am
     3    10     8    1
     4    10    11    1
     5    11    12   ar
     6    12    13   ar
     7    13    14   ar
     8    14    15   ar
     9    15    16   ar
    10    16    17    1
    11    17    18    1
    12    18    19    1
    13    19    20    1
    14     7     5    1
    15     5    22    1
    16    22    23    1
    17    23    24   ar
    18    24    25   ar
    19    25    26   ar
    20    26    27   ar
    21    27    28   ar
    22     5     4    1
    23     4     1    1
    24     1     2    1
    25     1    29    1
    26    29    30    1
    27    30    31    1
    28    31    32    1
    29    32    33    1
    30    33    45    1
    31    45    46    1
    32    46    47   ar
    33    47    48   ar
    34    48    49   ar
    35    49    51    1
    36    51    52   ar
    37    52    53   ar
    38    53    54   ar
    39    54    55   ar
    40    55    56   ar
    41    49    50   ar
    42    33    34    1
    43    34    35    1
    44    35    36    1
    45    36    37    2
    46    36    38   am
    47    38    40    1
    48    40    41    1
    49    41    42    1
    50    41    43    1
    51    41    44    1
    52    19    10    1
    53    28    23   ar
    54    35    30    1
    55    16    11   ar
    56    50    46   ar
    57    56    51   ar
    58     8     9    1
    59    20    21    1
    60     2     3    1
    61    38    39    1
@<TRIPOS>MOLECULE
*****
 56 61 0 0 0
SMALL
GASTEIGER

@<TRIPOS>ATOM
      1 C          62.2118   86.4816    9.8534 C.3     1  UNL1        0.1269
      2 O          63.1422   87.6581    9.8556 O.3     1  UNL1       -0.3830
      3 H          62.6255   88.4789    9.8435 H       1  UNL1        0.2104
      4 C          62.7654   85.0876    9.8701 C.3     1  UNL1        0.0401
      5 C          63.2595   84.4921   11.1551 C.3     1  UNL1        0.0833
      6 O          61.4716   85.6140   12.6701 O.2     1  UNL1       -0.2751
      7 C          62.8687   85.1077   12.4661 C.2     1  UNL1        0.2226
      8 N          63.8751   85.2167   13.5730 N.am    1  UNL1       -0.2999
      9 H          64.7921   84.8844   13.4391 H       1  UNL1        0.1498
     10 C          63.4844   85.8322   14.8839 C.3     1  UNL1        0.1278
     11 C          63.6648   87.3049   15.1044 C.ar    1  UNL1        0.0320
     12 C          64.2360   88.1621   14.0141 C.ar    1  UNL1        0.0004
     13 C          64.4164   89.6348   14.2346 C.ar    1  UNL1       -0.0001
     14 C          64.0257   90.2503   15.5455 C.ar    1  UNL1        0.0031
     15 C          63.4546   89.3931   16.6359 C.ar    1  UNL1        0.0366
     16 C          63.2741   87.9204   16.4153 C.ar    1  UNL1        0.1362
     17 O          62.7030   87.0632   17.5058 O.3     1  UNL1       -0.4730
     18 C          62.5225   85.5905   17.2853 C.3     1  UNL1        0.2364
     19 C          62.9133   84.9750   15.9743 C.3     1  UNL1        0.1762
     20 O          62.7328   83.5023   15.7537 O.3     1  UNL1       -0.3788
     21 H          62.3554   83.0998   16.5515 H       1  UNL1        0.2106
     22 C          64.1443   83.2812   11.1293 C.3     1  UNL1        0.0356
     23 C          63.5897   81.9389   11.5042 C.ar    1  UNL1       -0.0186
     24 C          63.2444   81.6426   12.9335 C.ar    1  UNL1        0.0164
     25 C          62.6898   80.3002   13.3084 C.ar    1  UNL1        0.0986
     26 N          62.4805   79.2542   12.2539 N.ar    1  UNL1       -0.2423
     27 C          62.8258   79.5505   10.8246 C.ar    1  UNL1        0.0986
     28 C          63.3804   80.8928   10.4497 C.ar    1  UNL1        0.0164
     29 C          60.7277   86.6990    9.8345 C.3     1  UNL1        0.1021
     30 N          60.1224   87.6561    8.8509 N.3     1  UNL1       -0.2621
     31 C          59.4103   87.1347    7.6380 C.3     1  UNL1        0.0901
     32 C          58.8050   88.0918    6.6544 C.3     1  UNL1        0.0900
     33 N          58.9118   89.5704    6.8836 N.3     1  UNL1       -0.2635
     34 C          59.6239   90.0918    8.0965 C.3     1  UNL1        0.0980
     35 C          60.2292   89.1346    9.0801 C.3     1  UNL1        0.1510
     36 C          60.9413   89.6560   10.2930 C.2     1  UNL1        0.2386
     37 O          60.3826   89.3956   11.6605 O.2     1  UNL1       -0.2736
     38 N          62.2121   90.4378   10.1384 N.am    1  UNL1       -0.2961
     39 H          62.5788   90.6087    9.2408 H       1  UNL1        0.1497
     40 C          62.9242   90.9592   11.3512 C.3     1  UNL1        0.1939
     41 C          64.1007   91.8764   11.1938 C.3     1  UNL1        0.4154
     42 F          65.2770   92.7937   11.0364 F       1  UNL1       -0.1682
     43 F          64.0345   91.7059    9.7050 F       1  UNL1       -0.1682
     44 F          64.1668   92.0470   12.6825 F       1  UNL1       -0.1682
     45 C          58.3065   90.5275    5.9000 C.3     1  UNL1        0.1377
     46 C          59.1825   91.2480    4.9183 C.ar    1  UNL1        0.1390
     47 C          60.6742   91.1291    4.8149 C.ar    1  UNL1        0.0375
     48 C          61.1342   92.0214    3.7004 C.ar    1  UNL1        0.0403
     49 C          59.9268   92.6919    3.1151 C.ar    1  UNL1        0.1449
     50 O          58.7206   92.2139    3.8678 O.2     1  UNL1       -0.4564
     51 C          59.9257   93.6689    1.9768 C.ar    1  UNL1        0.0345
     52 C          59.2958   93.2947    0.6679 C.ar    1  UNL1        0.0030
     53 C          59.2948   94.2717   -0.4703 C.ar    1  UNL1        0.0001
     54 C          59.9237   95.6227   -0.2996 C.ar    1  UNL1        0.0000
     55 C          60.5537   95.9968    1.0093 C.ar    1  UNL1        0.0001
     56 C          60.5546   95.0199    2.1474 C.ar    1  UNL1        0.0030
@<TRIPOS>BOND
     1     6     7    2
     2     7     8   am
     3    10     8    1
     4    10    11    1
     5    11    12   ar
     6    12    13   ar
     7    13    14   ar
     8    14    15   ar
     9    15    16   ar
    10    16    17    1
    11    17    18    1
    12    18    19    1
    13    19    20    1
    14     7     5    1
    15     5    22    1
    16    22    23    1
    17    23    24   ar
    18    24    25   ar
    19    25    26   ar
    20    26    27   ar
    21    27    28   ar
    22     5     4    1
    23     4     1    1
    24     1     2    1
    25     1    29    1
    26    29    30    1
    27    30    31    1
    28    31    32    1
    29    32    33    1
    30    33    45    1
    31    45    46    1
    32    46    47   ar
    33    47    48   ar
    34    48    49   ar
    35    49    51    1
    36    51    52   ar
    37    52    53   ar
    38    53    54   ar
    39    54    55   ar
    40    55    56   ar
    41    49    50   ar
    42    33    34    1
    43    34    35    1
    44    35    36    1
    45    36    37    2
    46    36    38   am
    47    38    40    1
    48    40    41    1
    49    41    42    1
    50    41    43    1
    51    41    44    1
    52    19    10    1
    53    28    23   ar
    54    35    30    1
    55    16    11   ar
    56    50    46   ar
    57    56    51   ar
    58     8     9    1
    59    20    21    1
    60     2     3    1
    61    38    39    1
@<TRIPOS>MOLECULE
*****
 56 61 0 0 0
SMALL
GASTEIGER

@<TRIPOS>ATOM
      1 C          60.3956   90.6082   11.2745 C.3     1  UNL1        0.1269
      2 O          59.3628   90.4108   12.3442 O.3     1  UNL1       -0.3830
      3 H          58.6223   89.8955   11.9876 H       1  UNL1        0.2104
      4 C          61.6475   91.3784   11.5737 C.3     1  UNL1        0.0401
      5 C          62.8287   90.6826   12.1825 C.3     1  UNL1        0.0833
      6 O          61.3129   89.7537   14.0772 O.2     1  UNL1       -0.2751
      7 C          62.6468   89.8171   13.3941 C.2     1  UNL1        0.2226
      8 N          63.7990   89.0151   13.9227 N.am    1  UNL1       -0.2999
      9 H          64.6745   89.0568   13.4743 H       1  UNL1        0.1498
     10 C          63.6172   88.1497   15.1342 C.3     1  UNL1        0.1278
     11 C          63.8111   86.6658   15.0319 C.ar    1  UNL1        0.0320
     12 C          64.1867   86.0473   13.7180 C.ar    1  UNL1        0.0004
     13 C          64.3806   84.5634   13.6157 C.ar    1  UNL1       -0.0001
     14 C          64.1988   83.6980   14.8272 C.ar    1  UNL1        0.0031
     15 C          63.8232   84.3165   16.1411 C.ar    1  UNL1        0.0366
     16 C          63.6293   85.8003   16.2435 C.ar    1  UNL1        0.1362
     17 O          63.2537   86.4188   17.5575 O.3     1  UNL1       -0.4730
     18 C          63.0598   87.9027   17.6598 C.3     1  UNL1        0.2364
     19 C          63.2416   88.7681   16.4481 C.3     1  UNL1        0.1762
     20 O          63.0477   90.2520   16.5504 O.3     1  UNL1       -0.3788
     21 H          62.8097   90.4850   17.4615 H       1  UNL1        0.2106
     22 C          64.1917   90.8522   11.5797 C.3     1  UNL1        0.0356
     23 C          65.0071   92.0698   11.8998 C.ar    1  UNL1       -0.0186
     24 C          65.2438   93.1119   10.8473 C.ar    1  UNL1        0.0164
     25 C          66.0593   94.3296   11.1674 C.ar    1  UNL1        0.0986
     26 N          66.6380   94.5050   12.5401 N.ar    1  UNL1       -0.2423
     27 C          66.4013   93.4629   13.5927 C.ar    1  UNL1        0.0986
     28 C          65.5859   92.2453   13.2726 C.ar    1  UNL1        0.0164
     29 C          60.1765   90.0354    9.9056 C.3     1  UNL1        0.1021
     30 N          60.8558   88.7580    9.5095 N.3     1  UNL1       -0.2621
     31 C          61.9070   88.1610   10.3977 C.3     1  UNL1        0.0901
     32 C          62.5863   86.8836   10.0017 C.3     1  UNL1        0.0900
     33 N          62.2145   86.2033    8.7175 N.3     1  UNL1       -0.2635
     34 C          61.1634   86.8003    7.8294 C.3     1  UNL1        0.0980
     35 C          60.4840   88.0777    8.2255 C.3     1  UNL1        0.1510
     36 C          59.4330   88.6748    7.3374 C.2     1  UNL1        0.2386
     37 O          58.0711   88.0504    7.2627 O.2     1  UNL1       -0.2736
     38 N          59.7437   89.8963    6.5241 N.am    1  UNL1       -0.2961
     39 H          60.6375   90.3061    6.5731 H       1  UNL1        0.1497
     40 C          58.6926   90.4933    5.6360 C.3     1  UNL1        0.1939
     41 C          58.9947   91.7306    4.8434 C.3     1  UNL1        0.4154
     42 F          59.2968   92.9677    4.0509 F       1  UNL1       -0.1682
     43 F          57.5333   92.0671    4.8117 F       1  UNL1       -0.1682
     44 F          60.4560   91.3940    4.8752 F       1  UNL1       -0.1682
     45 C          62.8938   84.9259    8.3215 C.3     1  UNL1        0.1377
     46 C          63.2550   83.9131    9.3673 C.ar    1  UNL1        0.1390
     47 C          64.6352   83.4061    9.6641 C.ar    1  UNL1        0.0375
     48 C          64.5328   82.4091   10.7802 C.ar    1  UNL1        0.0403
     49 C          63.0892   82.3000   11.1731 C.ar    1  UNL1        0.1449
     50 O          62.2996   83.2294   10.2999 O.2     1  UNL1       -0.4564
     51 C          62.5330   81.4164   12.2502 C.ar    1  UNL1        0.0345
     52 C          61.7094   82.0086   13.3551 C.ar    1  UNL1        0.0030
     53 C          61.1532   81.1250   14.4322 C.ar    1  UNL1        0.0001
     54 C          61.4207   79.6494   14.4043 C.ar    1  UNL1        0.0000
     55 C          62.2444   79.0572   13.2993 C.ar    1  UNL1        0.0001
     56 C          62.8005   79.9407   12.2223 C.ar    1  UNL1        0.0030
@<TRIPOS>BOND
     1     6     7    2
     2     7     8   am
     3    10     8    1
     4    10    11    1
     5    11    12   ar
     6    12    13   ar
     7    13    14   ar
     8    14    15   ar
     9    15    16   ar
    10    16    17    1
    11    17    18    1
    12    18    19    1
    13    19    20    1
    14     7     5    1
    15     5    22    1
    16    22    23    1
    17    23    24   ar
    18    24    25   ar
    19    25    26   ar
    20    26    27   ar
    21    27    28   ar
    22     5     4    1
    23     4     1    1
    24     1     2    1
    25     1    29    1
    26    29    30    1
    27    30    31    1
    28    31    32    1
    29    32    33    1
    30    33    45    1
    31    45    46    1
    32    46    47   ar
    33    47    48   ar
    34    48    49   ar
    35    49    51    1
    36    51    52   ar
    37    52    53   ar
    38    53    54   ar
    39    54    55   ar
    40    55    56   ar
    41    49    50   ar
    42    33    34    1
    43    34    35    1
    44    35    36    1
    45    36    37    2
    46    36    38   am
    47    38    40    1
    48    40    41    1
    49    41    42    1
    50    41    43    1
    51    41    44    1
    52    19    10    1
    53    28    23   ar
    54    35    30    1
    55    16    11   ar
    56    50    46   ar
    57    56    51   ar
    58     8     9    1
    59    20    21    1
    60     2     3    1
    61    38    39    1
@<TRIPOS>MOLECULE
*****
 56 61 0 0 0
SMALL
GASTEIGER

@<TRIPOS>ATOM
      1 C          62.4349   85.2375    8.6475 C.3     1  UNL1        0.1269
      2 O          62.4396   84.3002    7.4764 O.3     1  UNL1       -0.3830
      3 H          61.6913   84.5060    6.8946 H       1  UNL1        0.2104
      4 C          63.4969   85.1269    9.7010 C.3     1  UNL1        0.0401
      5 C          63.3008   84.2078   10.8700 C.3     1  UNL1        0.0833
      6 O          61.5144   85.3526   12.3695 O.2     1  UNL1       -0.2751
      7 C          62.8833   84.7636   12.1993 C.2     1  UNL1        0.2226
      8 N          63.8349   84.7303   13.3584 N.am    1  UNL1       -0.2999
      9 H          64.7334   84.3436   13.2467 H       1  UNL1        0.1498
     10 C          63.4175   85.2860   14.6876 C.3     1  UNL1        0.1278
     11 C          63.6193   86.7416   14.9888 C.ar    1  UNL1        0.0320
     12 C          64.2384   87.6414   13.9607 C.ar    1  UNL1        0.0004
     13 C          64.4401   89.0969   14.2618 C.ar    1  UNL1       -0.0001
     14 C          64.0228   89.6526   15.5911 C.ar    1  UNL1        0.0031
     15 C          63.4036   88.7528   16.6191 C.ar    1  UNL1        0.0366
     16 C          63.2019   87.2973   16.3180 C.ar    1  UNL1        0.1362
     17 O          62.5827   86.3975   17.3462 O.3     1  UNL1       -0.4730
     18 C          62.3810   84.9420   17.0450 C.3     1  UNL1        0.2364
     19 C          62.7984   84.3862   15.7157 C.3     1  UNL1        0.1762
     20 O          62.5966   82.9307   15.4145 O.3     1  UNL1       -0.3788
     21 H          62.1883   82.4958   16.1794 H       1  UNL1        0.2106
     22 C          63.5221   82.7329   10.7099 C.3     1  UNL1        0.0356
     23 C          63.4019   81.8232   11.8965 C.ar    1  UNL1       -0.0186
     24 C          64.5863   81.5923   12.7875 C.ar    1  UNL1        0.0164
     25 C          64.4660   80.6826   13.9742 C.ar    1  UNL1        0.0986
     26 N          63.1614   80.0039   14.2698 N.ar    1  UNL1       -0.2423
     27 C          61.9770   80.2349   13.3788 C.ar    1  UNL1        0.0986
     28 C          62.0973   81.1445   12.1922 C.ar    1  UNL1        0.0164
     29 C          61.3681   86.2855    8.7651 C.3     1  UNL1        0.1021
     30 N          61.6199   87.5248    9.5718 N.3     1  UNL1       -0.2621
     31 C          62.6403   87.5096   10.6712 C.3     1  UNL1        0.0901
     32 C          62.8921   88.7489   11.4778 C.3     1  UNL1        0.0900
     33 N          62.1235   90.0034   11.1851 N.3     1  UNL1       -0.2635
     34 C          61.1032   90.0185   10.0858 C.3     1  UNL1        0.0980
     35 C          60.8513   88.7792    9.2791 C.3     1  UNL1        0.1510
     36 C          59.8310   88.7944    8.1798 C.2     1  UNL1        0.2386
     37 O          58.7552   87.7498    8.1405 O.2     1  UNL1       -0.2736
     38 N          59.8864   89.8541    7.1196 N.am    1  UNL1       -0.2961
     39 H          60.5925   90.5397    7.1453 H       1  UNL1        0.1497
     40 C          58.8661   89.8693    6.0202 C.3     1  UNL1        0.1939
     41 C          58.7771   91.0472    5.0957 C.3     1  UNL1        0.4154
     42 F          58.6881   92.2250    4.1712 F       1  UNL1       -0.1682
     43 F          57.2813   90.9353    5.0970 F       1  UNL1       -0.1682
     44 F          60.2729   91.1590    5.0943 F       1  UNL1       -0.1682
     45 C          62.3753   91.2427   11.9918 C.3     1  UNL1        0.1377
     46 C          63.6825   91.9675   11.8649 C.ar    1  UNL1        0.1390
     47 C          64.8321   91.8871   12.8252 C.ar    1  UNL1        0.0375
     48 C          65.9297   92.7698   12.3092 C.ar    1  UNL1        0.0403
     49 C          65.4584   93.3956   11.0300 C.ar    1  UNL1        0.1449
     50 O          64.0697   92.8998   10.7554 O.2     1  UNL1       -0.4564
     51 C          66.2390   94.3498   10.1754 C.ar    1  UNL1        0.0345
     52 C          67.2095   93.8249    9.1593 C.ar    1  UNL1        0.0030
     53 C          67.9901   94.7791    8.3047 C.ar    1  UNL1        0.0001
     54 C          67.8001   96.2582    8.4664 C.ar    1  UNL1        0.0000
     55 C          66.8295   96.7831    9.4825 C.ar    1  UNL1        0.0001
     56 C          66.0491   95.8290   10.3370 C.ar    1  UNL1        0.0030
@<TRIPOS>BOND
     1     6     7    2
     2     7     8   am
     3    10     8    1
     4    10    11    1
     5    11    12   ar
     6    12    13   ar
     7    13    14   ar
     8    14    15   ar
     9    15    16   ar
    10    16    17    1
    11    17    18    1
    12    18    19    1
    13    19    20    1
    14     7     5    1
    15     5    22    1
    16    22    23    1
    17    23    24   ar
    18    24    25   ar
    19    25    26   ar
    20    26    27   ar
    21    27    28   ar
    22     5     4    1
    23     4     1    1
    24     1     2    1
    25     1    29    1
    26    29    30    1
    27    30    31    1
    28    31    32    1
    29    32    33    1
    30    33    45    1
    31    45    46    1
    32    46    47   ar
    33    47    48   ar
    34    48    49   ar
    35    49    51    1
    36    51    52   ar
    37    52    53   ar
    38    53    54   ar
    39    54    55   ar
    40    55    56   ar
    41    49    50   ar
    42    33    34    1
    43    34    35    1
    44    35    36    1
    45    36    37    2
    46    36    38   am
    47    38    40    1
    48    40    41    1
    49    41    42    1
    50    41    43    1
    51    41    44    1
    52    19    10    1
    53    28    23   ar
    54    35    30    1
    55    16    11   ar
    56    50    46   ar
    57    56    51   ar
    58     8     9    1
    59    20    21    1
    60     2     3    1
    61    38    39    1
@<TRIPOS>MOLECULE
*****
 56 61 0 0 0
SMALL
GASTEIGER

@<TRIPOS>ATOM
      1 C          61.7472   90.2293   10.9358 C.3     1  UNL1        0.1269
      2 O          60.4930   91.0427   11.0588 O.3     1  UNL1       -0.3830
      3 H          60.5067   91.5336   11.8953 H       1  UNL1        0.2104
      4 C          61.9708   89.3743    9.7238 C.3     1  UNL1        0.0401
      5 C          60.7983   88.8222    8.9687 C.3     1  UNL1        0.0833
      6 O          59.1202   90.7732    8.6107 O.2     1  UNL1       -0.2751
      7 C          60.0147   89.7092    8.0470 C.2     1  UNL1        0.2226
      8 N          60.1258   89.5322    6.5616 N.am    1  UNL1       -0.2999
      9 H          60.7129   88.8338    6.1917 H       1  UNL1        0.1498
     10 C          59.3423   90.4191    5.6399 C.3     1  UNL1        0.1278
     11 C          60.0520   91.2302    4.5966 C.ar    1  UNL1        0.0320
     12 C          61.5451   91.1544    4.4750 C.ar    1  UNL1        0.0004
     13 C          62.2547   91.9655    3.4317 C.ar    1  UNL1       -0.0001
     14 C          61.4713   92.8524    2.5100 C.ar    1  UNL1        0.0031
     15 C          59.9782   92.9282    2.6316 C.ar    1  UNL1        0.0366
     16 C          59.2685   92.1171    3.6749 C.ar    1  UNL1        0.1362
     17 O          57.7753   92.1929    3.7965 O.3     1  UNL1       -0.4730
     18 C          57.0657   91.3818    4.8399 C.3     1  UNL1        0.2364
     19 C          57.8492   90.4949    5.7616 C.3     1  UNL1        0.1762
     20 O          57.1396   89.6838    6.8049 O.3     1  UNL1       -0.3788
     21 H          56.1852   89.8478    6.7482 H       1  UNL1        0.2106
     22 C          60.4091   87.3832    9.1352 C.3     1  UNL1        0.0356
     23 C          61.1681   86.3122    8.4094 C.ar    1  UNL1       -0.0186
     24 C          60.5736   85.6640    7.1943 C.ar    1  UNL1        0.0164
     25 C          61.3327   84.5929    6.4685 C.ar    1  UNL1        0.0986
     26 N          62.6861   84.1702    6.9577 N.ar    1  UNL1       -0.2423
     27 C          63.2806   84.8184    8.1728 C.ar    1  UNL1        0.0986
     28 C          62.5216   85.8894    8.8986 C.ar    1  UNL1        0.0164
     29 C          62.7779   90.2708   12.0249 C.3     1  UNL1        0.1021
     30 N          63.1838   89.0062   12.7220 N.3     1  UNL1       -0.2621
     31 C          62.7711   87.6764   12.1638 C.3     1  UNL1        0.0901
     32 C          63.1769   86.4118   12.8609 C.3     1  UNL1        0.0900
     33 N          63.9955   86.4769   14.1162 N.3     1  UNL1       -0.2635
     34 C          64.4082   87.8066   14.6743 C.3     1  UNL1        0.0980
     35 C          64.0023   89.0712   13.9772 C.3     1  UNL1        0.1510
     36 C          64.4150   90.4009   14.5354 C.2     1  UNL1        0.2386
     37 O          63.4812   91.1614   15.4296 O.2     1  UNL1       -0.2736
     38 N          65.7615   90.9702   14.1993 N.am    1  UNL1       -0.2961
     39 H          66.3744   90.4710   13.6124 H       1  UNL1        0.1497
     40 C          66.1742   92.2998   14.7575 C.3     1  UNL1        0.1939
     41 C          67.3547   92.3930   15.6783 C.3     1  UNL1        0.4154
     42 F          68.5351   92.4862   16.5991 F       1  UNL1       -0.1682
     43 F          68.2659   92.0142   14.5486 F       1  UNL1       -0.1682
     44 F          66.4436   92.7718   16.8080 F       1  UNL1       -0.1682
     45 C          64.4014   85.2123   14.8133 C.3     1  UNL1        0.1377
     46 C          63.7467   83.9124   14.4501 C.ar    1  UNL1        0.1390
     47 C          62.7921   83.1360   15.3081 C.ar    1  UNL1        0.0375
     48 C          62.3871   81.9045   14.5535 C.ar    1  UNL1        0.0403
     49 C          63.0914   81.9198   13.2292 C.ar    1  UNL1        0.1449
     50 O          63.9317   83.1607   13.1653 O.2     1  UNL1       -0.4564
     51 C          62.9758   80.8772   12.1570 C.ar    1  UNL1        0.0345
     52 C          62.6031   79.4695   12.5168 C.ar    1  UNL1        0.0030
     53 C          62.4874   78.4268   11.4446 C.ar    1  UNL1        0.0001
     54 C          62.7445   78.7919   10.0127 C.ar    1  UNL1        0.0000
     55 C          63.1173   80.1997    9.6528 C.ar    1  UNL1        0.0001
     56 C          63.2329   81.2422   10.7250 C.ar    1  UNL1        0.0030
@<TRIPOS>BOND
     1     6     7    2
     2     7     8   am
     3    10     8    1
     4    10    11    1
     5    11    12   ar
     6    12    13   ar
     7    13    14   ar
     8    14    15   ar
     9    15    16   ar
    10    16    17    1
    11    17    18    1
    12    18    19    1
    13    19    20    1
    14     7     5    1
    15     5    22    1
    16    22    23    1
    17    23    24   ar
    18    24    25   ar
    19    25    26   ar
    20    26    27   ar
    21    27    28   ar
    22     5     4    1
    23     4     1    1
    24     1     2    1
    25     1    29    1
    26    29    30    1
    27    30    31    1
    28    31    32    1
    29    32    33    1
    30    33    45    1
    31    45    46    1
    32    46    47   ar
    33    47    48   ar
    34    48    49   ar
    35    49    51    1
    36    51    52   ar
    37    52    53   ar
    38    53    54   ar
    39    54    55   ar
    40    55    56   ar
    41    49    50   ar
    42    33    34    1
    43    34    35    1
    44    35    36    1
    45    36    37    2
    46    36    38   am
    47    38    40    1
    48    40    41    1
    49    41    42    1
    50    41    43    1
    51    41    44    1
    52    19    10    1
    53    28    23   ar
    54    35    30    1
    55    16    11   ar
    56    50    46   ar
    57    56    51   ar
    58     8     9    1
    59    20    21    1
    60     2     3    1
    61    38    39    1
