@<TRIPOS>MOLECULE
*****
 43 48 0 0 0
SMALL
GASTEIGER

@<TRIPOS>ATOM
      1 N          61.7303   85.1085   10.6832 N.3     1  UNL1       -0.2676
      2 C          61.2384   86.1955   11.5922 C.3     1  UNL1        0.0746
      3 C          60.7722   87.5001   11.0173 C.3     1  UNL1        0.0449
      4 C          60.7979   87.7177    9.5334 C.3     1  UNL1        0.1391
      5 C          61.2898   86.6307    8.6244 C.3     1  UNL1        0.0449
      6 C          61.7560   85.3260    9.1993 C.3     1  UNL1        0.0746
      7 C          60.7657   88.0785    8.0778 C.2     1  UNL1        0.2529
      8 O          61.1940   87.1979    6.9415 O.2     1  UNL1       -0.2724
      9 N          60.2300   89.4745    7.9579 N.am    1  UNL1       -0.1907
     10 C          59.9311   89.9765    9.3395 C.2     1  UNL1        0.3219
     11 O          59.3783   91.3270    9.6865 O.2     1  UNL1       -0.2512
     12 N          60.2821   88.8908   10.3132 N.am    1  UNL1       -0.2222
     13 C          60.1420   88.9650   11.8048 C.ar    1  UNL1        0.1453
     14 C          61.3028   89.4059   12.6462 C.ar    1  UNL1        0.0922
     15 C          61.1626   89.4801   14.1377 C.ar    1  UNL1        0.2259
     16 O          62.3234   89.9210   14.9792 O.3     1  UNL1       -0.4919
     17 N          59.8615   89.1134   14.7880 N.ar    1  UNL1       -0.1894
     18 C          58.7007   88.6725   13.9466 C.ar    1  UNL1        0.2027
     19 N          58.8409   88.5983   12.4550 N.ar    1  UNL1       -0.2084
     20 H          63.1362   90.1501   14.5730 H       1  UNL1        0.2938
     21 C          60.0285   90.2349    6.6808 C.ar    1  UNL1        0.0622
     22 C          58.6430   90.5949    6.2329 C.ar    1  UNL1        0.0154
     23 C          58.4415   91.3554    4.9557 C.ar    1  UNL1        0.0013
     24 C          59.6255   91.7557    4.1265 C.ar    1  UNL1        0.0001
     25 C          61.0111   91.3957    4.5744 C.ar    1  UNL1        0.0013
     26 C          61.2125   90.6353    5.8515 C.ar    1  UNL1        0.0154
     27 C          59.4240   92.5162    2.8493 C.ar    1  UNL1        0.0000
     28 C          60.1848   93.7855    2.6042 C.ar    1  UNL1        0.0000
     29 C          59.9833   94.5459    1.3270 C.ar    1  UNL1        0.0011
     30 C          59.0210   94.0370    0.2949 C.ar    1  UNL1        0.0140
     31 C          58.2602   92.7677    0.5400 C.ar    1  UNL1        0.0011
     32 C          58.4618   92.0072    1.8173 C.ar    1  UNL1        0.0000
     33 C          58.8195   94.7974   -0.9822 C.2     1  UNL1        0.0729
     34 O          57.8459   95.9375   -1.0306 O.co2   1  UNL1       -0.5446
     35 O          59.5916   94.4178   -2.2110 O.co2   1  UNL1       -0.5446
     36 C          62.1965   83.8037   11.2581 C.3     1  UNL1        0.1183
     37 C          61.9394   81.4008   13.0358 C.3     1  UNL1        0.0323
     38 C          62.7643   82.5741   13.4753 C.ar    1  UNL1       -0.0069
     39 C          63.4606   82.5459   14.8035 C.ar    1  UNL1       -0.0015
     40 C          64.2855   83.7191   15.2430 C.ar    1  UNL1        0.0203
     41 C          64.4140   84.9205   14.3542 C.ar    1  UNL1        0.0985
     42 N          63.7177   84.9488   13.0259 N.ar    1  UNL1       -0.2471
     43 C          62.8928   83.7755   12.5864 C.ar    1  UNL1        0.0712
@<TRIPOS>UNITY_ATOM_ATTR
34 1
charge -1
@<TRIPOS>BOND
     1    37    38    1
     2    38    39   ar
     3    39    40   ar
     4    40    41   ar
     5    41    42   ar
     6    42    43   ar
     7    43    36    1
     8    36     1    1
     9     1     2    1
    10     2     3    1
    11     3     4    1
    12     4     5    1
    13     5     6    1
    14     4     7    1
    15     7     8    2
    16     7     9   am
    17     9    21    1
    18    21    22   ar
    19    22    23   ar
    20    23    24   ar
    21    24    27    1
    22    27    28   ar
    23    28    29   ar
    24    29    30   ar
    25    30    33    1
    26    33    34   ar
    27    33    35   ar
    28    30    31   ar
    29    31    32   ar
    30    24    25   ar
    31    25    26   ar
    32     9    10   am
    33    10    11    2
    34    10    12   am
    35    12    13    1
    36    13    14   ar
    37    14    15   ar
    38    15    16    1
    39    15    17   ar
    40    17    18   ar
    41    18    19   ar
    42    43    38   ar
    43     6     1    1
    44    26    21   ar
    45    19    13   ar
    46    12     4    1
    47    32    27   ar
    48    16    20    1
