@<TRIPOS>MOLECULE
*****
 31 34 0 0 0
SMALL
GASTEIGER

@<TRIPOS>ATOM
      1 C          62.5523   89.5563   11.7871 C.ar    1  UNL1        0.1534
      2 C          63.1403   89.6954   13.1601 C.ar    1  UNL1        0.0351
      3 C          64.1271   90.7883   13.4461 C.ar    1  UNL1        0.0722
      4 CL         64.7151   90.9274   14.8191 Cl      1  UNL1       -0.0809
      5 C          64.5259   91.7420   12.3593 C.ar    1  UNL1        0.0577
      6 C          63.9379   91.6030   10.9864 C.ar    1  UNL1        0.0462
      7 C          62.9511   90.5101   10.7003 C.ar    1  UNL1        0.1602
      8 F          62.3631   90.3710    9.3274 F       1  UNL1       -0.2027
      9 O          60.4941   89.4893   11.2780 O.2     1  UNL1       -0.1498
     10 S          61.5655   88.4634   11.5012 S.O2    1  UNL1        0.0772
     11 O          62.6368   87.4376   11.7243 O.2     1  UNL1       -0.1498
     12 N          60.5786   87.3706   11.2152 N.pl3   1  UNL1       -0.1936
     13 H          60.1164   86.9181   11.9574 H       1  UNL1        0.1758
     14 C          60.2959   86.9672    9.7984 C.ar    1  UNL1        0.1786
     15 N          59.0974   87.3674    8.9902 N.ar    1  UNL1       -0.2214
     16 C          59.2228   86.7403    7.6333 C.ar    1  UNL1        0.1079
     17 C          60.4989   85.9525    7.6030 C.ar    1  UNL1        0.0588
     18 S          61.1621   86.0927    8.9411 S.2     1  UNL1       -0.0497
     19 N          65.5127   92.8349   12.6454 N.pl3   1  UNL1       -0.3319
     20 H          65.2756   93.5625   13.2647 H       1  UNL1        0.1468
     21 C          66.8608   92.8192   11.9878 C.3     1  UNL1        0.0892
     22 C          67.1126   93.6626   10.7731 C.3     1  UNL1        0.0405
     23 C          66.3435   94.4896   11.7603 C.3     1  UNL1        0.0040
     24 C          66.1200   95.8440   11.1557 C.3     1  UNL1        0.0025
     25 C          66.7510   95.8541    9.7948 C.3     1  UNL1        0.0270
     26 C          67.3644   94.5058    9.5584 C.3     1  UNL1        0.0897
     27 O          67.6162   95.3491    8.3437 O.3     1  UNL1       -0.3867
     28 C          68.1334   93.6788    8.5712 C.3     1  UNL1        0.0270
     29 C          68.3570   92.3243    9.1758 C.3     1  UNL1        0.0025
     30 C          67.7260   92.3143   10.5366 C.3     1  UNL1        0.0040
     31 H          68.1136   94.8336    7.6897 H       1  UNL1        0.2102
@<TRIPOS>BOND
     1     9    10    2
     2    10    11    2
     3    10    12    1
     4    12    14    1
     5    14    15   ar
     6    15    16   ar
     7    16    17   ar
     8    17    18   ar
     9    10     1    1
    10     1     2   ar
    11     2     3   ar
    12     3     4    1
    13     3     5   ar
    14     5    19    1
    15    19    21    1
    16    22    21    1
    17    22    23    1
    18    23    24    1
    19    24    25    1
    20    25    26    1
    21    26    27    1
    22    26    28    1
    23    28    29    1
    24    29    30    1
    25     5     6   ar
    26     6     7   ar
    27     7     8    1
    28    18    14   ar
    29     7     1   ar
    30    26    22    1
    31    30    22    1
    32    12    13    1
    33    19    20    1
    34    27    31    1
@<TRIPOS>MOLECULE
*****
 31 34 0 0 0
SMALL
GASTEIGER

@<TRIPOS>ATOM
      1 C          63.9620   90.6414   12.5194 C.ar    1  UNL1        0.1534
      2 C          63.1017   90.8103   11.3022 C.ar    1  UNL1        0.0351
      3 C          62.3304   89.6433   10.7612 C.ar    1  UNL1        0.0722
      4 CL         61.4701   89.8122    9.5440 Cl      1  UNL1       -0.0809
      5 C          62.4192   88.3072   11.4372 C.ar    1  UNL1        0.0577
      6 C          63.2795   88.1383   12.6543 C.ar    1  UNL1        0.0462
      7 C          64.0509   89.3054   13.1954 C.ar    1  UNL1        0.1602
      8 F          64.9111   89.1364   14.4125 F       1  UNL1       -0.2027
      9 O          64.0221   91.6699   14.3737 O.2     1  UNL1       -0.1498
     10 S          64.7334   91.8086   13.0604 S.O2    1  UNL1        0.0772
     11 O          65.4447   91.9473   11.7472 O.2     1  UNL1       -0.1498
     12 N          65.5047   92.9757   13.6015 N.pl3   1  UNL1       -0.1936
     13 H          65.1782   93.8927   13.4536 H       1  UNL1        0.1758
     14 C          66.7734   92.7459   14.3679 C.ar    1  UNL1        0.1786
     15 N          68.1224   92.4636   13.7757 N.ar    1  UNL1       -0.2214
     16 C          69.0987   92.3011   14.9029 C.ar    1  UNL1        0.1079
     17 C          68.3531   92.4830   16.1917 C.ar    1  UNL1        0.0588
     18 S          66.9160   92.7578   15.8611 S.2     1  UNL1       -0.0497
     19 N          61.6478   87.1401   10.8961 N.pl3   1  UNL1       -0.3319
     20 H          61.0948   87.2473   10.0887 H       1  UNL1        0.1468
     21 C          61.7189   85.8097   11.5852 C.3     1  UNL1        0.0892
     22 C          62.7177   84.7848   11.1358 C.3     1  UNL1        0.0405
     23 C          62.2662   85.5524    9.9288 C.3     1  UNL1        0.0040
     24 C          62.9860   85.0018    8.7335 C.3     1  UNL1        0.0025
     25 C          63.8824   83.8940    9.2017 C.3     1  UNL1        0.0270
     26 C          63.7166   83.7599   10.6865 C.3     1  UNL1        0.0897
     27 O          64.7154   82.7349   10.2372 O.3     1  UNL1       -0.3867
     28 C          64.1681   82.9923   11.8935 C.3     1  UNL1        0.0270
     29 C          63.4483   83.5428   13.0889 C.3     1  UNL1        0.0025
     30 C          62.5519   84.6506   12.6206 C.3     1  UNL1        0.0040
     31 H          65.0223   82.2250   11.0032 H       1  UNL1        0.2102
@<TRIPOS>BOND
     1     9    10    2
     2    10    11    2
     3    10    12    1
     4    12    14    1
     5    14    15   ar
     6    15    16   ar
     7    16    17   ar
     8    17    18   ar
     9    10     1    1
    10     1     2   ar
    11     2     3   ar
    12     3     4    1
    13     3     5   ar
    14     5    19    1
    15    19    21    1
    16    22    21    1
    17    22    23    1
    18    23    24    1
    19    24    25    1
    20    25    26    1
    21    26    27    1
    22    26    28    1
    23    28    29    1
    24    29    30    1
    25     5     6   ar
    26     6     7   ar
    27     7     8    1
    28    18    14   ar
    29     7     1   ar
    30    26    22    1
    31    30    22    1
    32    12    13    1
    33    19    20    1
    34    27    31    1
@<TRIPOS>MOLECULE
*****
 31 34 0 0 0
SMALL
GASTEIGER

@<TRIPOS>ATOM
      1 C          62.9951   88.8106   12.0206 C.ar    1  UNL1        0.1534
      2 C          63.7003   89.2711   13.2618 C.ar    1  UNL1        0.0351
      3 C          64.3420   90.6263   13.3007 C.ar    1  UNL1        0.0722
      4 CL         65.0473   91.0869   14.5420 Cl      1  UNL1       -0.0809
      5 C          64.2786   91.5210   12.0985 C.ar    1  UNL1        0.0577
      6 C          63.5735   91.0605   10.8573 C.ar    1  UNL1        0.0462
      7 C          62.9317   89.7053   10.8183 C.ar    1  UNL1        0.1602
      8 F          62.2265   89.2448    9.5771 F       1  UNL1       -0.2027
      9 O          61.1913   88.0274   11.2250 O.2     1  UNL1       -0.1498
     10 S          62.3534   87.4554   11.9817 S.O2    1  UNL1        0.0772
     11 O          63.5153   86.8834   12.7383 O.2     1  UNL1       -0.1498
     12 N          61.7115   86.1002   11.9428 N.pl3   1  UNL1       -0.1936
     13 H          60.7839   85.9858   12.2521 H       1  UNL1        0.1758
     14 C          62.4830   84.9193   11.4327 C.ar    1  UNL1        0.1786
     15 N          63.0758   84.7788   10.0620 N.ar    1  UNL1       -0.2214
     16 C          63.7564   83.4442    9.9859 C.ar    1  UNL1        0.1079
     17 C          63.5842   82.7599   11.3095 C.ar    1  UNL1        0.0588
     18 S          62.7972   83.6716   12.2037 S.2     1  UNL1       -0.0497
     19 N          64.9204   92.8762   12.1375 N.pl3   1  UNL1       -0.3319
     20 H          64.3730   93.6752   12.3142 H       1  UNL1        0.1468
     21 C          66.3962   93.0141   11.9072 C.3     1  UNL1        0.0892
     22 C          66.9031   93.8605   10.7773 C.3     1  UNL1        0.0405
     23 C          66.1178   94.7432   11.7015 C.3     1  UNL1        0.0040
     24 C          66.1393   96.1351   11.1428 C.3     1  UNL1        0.0025
     25 C          66.9380   96.1126    9.8732 C.3     1  UNL1        0.0270
     26 C          67.4100   94.7069    9.6474 C.3     1  UNL1        0.0897
     27 O          67.9169   95.5532    8.5174 O.3     1  UNL1       -0.3867
     28 C          68.1953   93.8242    8.7231 C.3     1  UNL1        0.0270
     29 C          68.1738   92.4323    9.2819 C.3     1  UNL1        0.0025
     30 C          67.3751   92.4548   10.5514 C.3     1  UNL1        0.0040
     31 H          68.4292   95.0021    7.9052 H       1  UNL1        0.2102
@<TRIPOS>BOND
     1     9    10    2
     2    10    11    2
     3    10    12    1
     4    12    14    1
     5    14    15   ar
     6    15    16   ar
     7    16    17   ar
     8    17    18   ar
     9    10     1    1
    10     1     2   ar
    11     2     3   ar
    12     3     4    1
    13     3     5   ar
    14     5    19    1
    15    19    21    1
    16    22    21    1
    17    22    23    1
    18    23    24    1
    19    24    25    1
    20    25    26    1
    21    26    27    1
    22    26    28    1
    23    28    29    1
    24    29    30    1
    25     5     6   ar
    26     6     7   ar
    27     7     8    1
    28    18    14   ar
    29     7     1   ar
    30    26    22    1
    31    30    22    1
    32    12    13    1
    33    19    20    1
    34    27    31    1
@<TRIPOS>MOLECULE
*****
 31 34 0 0 0
SMALL
GASTEIGER

@<TRIPOS>ATOM
      1 C          64.4672   91.3403   11.9686 C.ar    1  UNL1        0.1534
      2 C          63.4958   91.2528   10.8289 C.ar    1  UNL1        0.0351
      3 C          62.5365   90.1026   10.7478 C.ar    1  UNL1        0.0722
      4 CL         61.5650   90.0151    9.6081 Cl      1  UNL1       -0.0809
      5 C          62.5486   89.0398   11.8061 C.ar    1  UNL1        0.0577
      6 C          63.5201   89.1272   12.9457 C.ar    1  UNL1        0.0462
      7 C          64.4794   90.2775   13.0270 C.ar    1  UNL1        0.1602
      8 F          65.4508   90.3649   14.1665 F       1  UNL1       -0.2027
      9 O          65.8375   92.2481   10.6276 O.2     1  UNL1       -0.1498
     10 S          65.4265   92.4906   12.0497 S.O2    1  UNL1        0.0772
     11 O          65.0155   92.7332   13.4716 O.2     1  UNL1       -0.1498
     12 N          66.3857   93.6409   12.1307 N.pl3   1  UNL1       -0.1936
     13 H          66.8822   93.8101   12.9638 H       1  UNL1        0.1758
     14 C          66.5886   94.5334   10.9423 C.ar    1  UNL1        0.1786
     15 N          67.7101   94.4398    9.9506 N.ar    1  UNL1       -0.2214
     16 C          67.5202   95.5248    8.9323 C.ar    1  UNL1        0.1079
     17 C          66.2814   96.2889    9.2947 C.ar    1  UNL1        0.0588
     18 S          65.7056   95.6762   10.5369 S.2     1  UNL1       -0.0497
     19 N          61.5893   87.8895   11.7249 N.pl3   1  UNL1       -0.3319
     20 H          60.9920   87.6923   12.4822 H       1  UNL1        0.1468
     21 C          61.5402   87.0396   10.4899 C.3     1  UNL1        0.0892
     22 C          62.3303   85.7662   10.4239 C.3     1  UNL1        0.0405
     23 C          61.9203   85.9839   11.8503 C.3     1  UNL1        0.0040
     24 C          62.4570   84.8451   12.6657 C.3     1  UNL1        0.0025
     25 C          63.1986   83.9235   11.7434 C.3     1  UNL1        0.0270
     26 C          63.1203   84.4928   10.3578 C.3     1  UNL1        0.0897
     27 O          63.9103   83.2195   10.2917 O.3     1  UNL1       -0.3867
     28 C          63.5302   84.2751    8.9314 C.3     1  UNL1        0.0270
     29 C          62.9935   85.4140    8.1159 C.3     1  UNL1        0.0025
     30 C          62.2519   86.3355    9.0384 C.3     1  UNL1        0.0040
     31 H          64.1869   83.0577    9.3762 H       1  UNL1        0.2102
@<TRIPOS>BOND
     1     9    10    2
     2    10    11    2
     3    10    12    1
     4    12    14    1
     5    14    15   ar
     6    15    16   ar
     7    16    17   ar
     8    17    18   ar
     9    10     1    1
    10     1     2   ar
    11     2     3   ar
    12     3     4    1
    13     3     5   ar
    14     5    19    1
    15    19    21    1
    16    22    21    1
    17    22    23    1
    18    23    24    1
    19    24    25    1
    20    25    26    1
    21    26    27    1
    22    26    28    1
    23    28    29    1
    24    29    30    1
    25     5     6   ar
    26     6     7   ar
    27     7     8    1
    28    18    14   ar
    29     7     1   ar
    30    26    22    1
    31    30    22    1
    32    12    13    1
    33    19    20    1
    34    27    31    1
@<TRIPOS>MOLECULE
*****
 31 34 0 0 0
SMALL
GASTEIGER

@<TRIPOS>ATOM
      1 C          64.6752   91.4699   12.0269 C.ar    1  UNL1        0.1534
      2 C          64.7626   90.4455   13.1192 C.ar    1  UNL1        0.0351
      3 C          63.8551   89.2514   13.1020 C.ar    1  UNL1        0.0722
      4 CL         63.9424   88.2270   14.1943 Cl      1  UNL1       -0.0809
      5 C          62.8600   89.0815   11.9924 C.ar    1  UNL1        0.0577
      6 C          62.7726   90.1059   10.9002 C.ar    1  UNL1        0.0462
      7 C          63.6802   91.3000   10.9174 C.ar    1  UNL1        0.1602
      8 F          63.5927   92.3244    9.8251 F       1  UNL1       -0.2027
      9 O          65.1570   92.9671   13.4503 O.2     1  UNL1       -0.1498
     10 S          65.5828   92.6639   12.0443 S.O2    1  UNL1        0.0772
     11 O          66.0085   92.3609   10.6384 O.2     1  UNL1       -0.1498
     12 N          66.4904   93.8581   12.0618 N.pl3   1  UNL1       -0.1936
     13 H          67.0188   94.0630   12.8668 H       1  UNL1        0.1758
     14 C          66.5929   94.7399   10.8527 C.ar    1  UNL1        0.1786
     15 N          67.7044   94.7295    9.8456 N.ar    1  UNL1       -0.2214
     16 C          67.4004   95.7702    8.8089 C.ar    1  UNL1        0.1079
     17 C          66.1011   96.4238    9.1755 C.ar    1  UNL1        0.0588
     18 S          65.6020   95.7871   10.4386 S.2     1  UNL1       -0.0497
     19 N          61.9525   87.8874   11.9752 N.pl3   1  UNL1       -0.3319
     20 H          61.4830   87.6140   12.7962 H       1  UNL1        0.1468
     21 C          61.7601   87.1098   10.7070 C.3     1  UNL1        0.0892
     22 C          62.4434   85.7865   10.5278 C.3     1  UNL1        0.0405
     23 C          62.1268   85.9511   11.9847 C.3     1  UNL1        0.0040
     24 C          62.6144   84.7295   12.7058 C.3     1  UNL1        0.0025
     25 C          63.2323   83.8099   11.6946 C.3     1  UNL1        0.0270
     26 C          63.1266   84.4632   10.3484 C.3     1  UNL1        0.0897
     27 O          63.8098   83.1399   10.1691 O.3     1  UNL1       -0.3867
     28 C          63.4432   84.2986    8.8915 C.3     1  UNL1        0.0270
     29 C          62.9556   85.5202    8.1703 C.3     1  UNL1        0.0025
     30 C          62.3377   86.4397    9.1816 C.3     1  UNL1        0.0040
     31 H          64.0247   83.0113    9.2320 H       1  UNL1        0.2102
@<TRIPOS>BOND
     1     9    10    2
     2    10    11    2
     3    10    12    1
     4    12    14    1
     5    14    15   ar
     6    15    16   ar
     7    16    17   ar
     8    17    18   ar
     9    10     1    1
    10     1     2   ar
    11     2     3   ar
    12     3     4    1
    13     3     5   ar
    14     5    19    1
    15    19    21    1
    16    22    21    1
    17    22    23    1
    18    23    24    1
    19    24    25    1
    20    25    26    1
    21    26    27    1
    22    26    28    1
    23    28    29    1
    24    29    30    1
    25     5     6   ar
    26     6     7   ar
    27     7     8    1
    28    18    14   ar
    29     7     1   ar
    30    26    22    1
    31    30    22    1
    32    12    13    1
    33    19    20    1
    34    27    31    1
@<TRIPOS>MOLECULE
*****
 31 34 0 0 0
SMALL
GASTEIGER

@<TRIPOS>ATOM
      1 C          64.3399   91.3298   11.8768 C.ar    1  UNL1        0.1534
      2 C          63.4063   91.3424   10.7028 C.ar    1  UNL1        0.0351
      3 C          62.3735   90.2649   10.5543 C.ar    1  UNL1        0.0722
      4 CL         61.4399   90.2774    9.3802 Cl      1  UNL1       -0.0809
      5 C          62.2742   89.1747   11.5798 C.ar    1  UNL1        0.0577
      6 C          63.2078   89.1621   12.7538 C.ar    1  UNL1        0.0462
      7 C          64.2406   90.2397   12.9023 C.ar    1  UNL1        0.1602
      8 F          65.1742   90.2270   14.0763 F       1  UNL1       -0.2027
      9 O          64.9544   92.6119   13.4512 O.2     1  UNL1       -0.1498
     10 S          65.3727   92.4074   12.0253 S.O2    1  UNL1        0.0772
     11 O          65.7910   92.2031   10.5994 O.2     1  UNL1       -0.1498
     12 N          66.4054   93.4851   12.1738 N.pl3   1  UNL1       -0.1936
     13 H          66.9234   93.5589   13.0078 H       1  UNL1        0.1758
     14 C          66.6489   94.4503   11.0518 C.ar    1  UNL1        0.1786
     15 N          67.7097   94.3282    9.9983 N.ar    1  UNL1       -0.2214
     16 C          67.5909   95.5096    9.0816 C.ar    1  UNL1        0.1079
     17 C          66.4566   96.3618    9.5685 C.ar    1  UNL1        0.0588
     18 S          65.8745   95.7071   10.7862 S.2     1  UNL1       -0.0497
     19 N          61.2414   88.0971   11.4312 N.pl3   1  UNL1       -0.3319
     20 H          60.2996   88.2846   11.6483 H       1  UNL1        0.1468
     21 C          61.6434   86.7338   10.9520 C.3     1  UNL1        0.0892
     22 C          61.3339   86.3115    9.5462 C.3     1  UNL1        0.0405
     23 C          60.1836   87.1336   10.0472 C.3     1  UNL1        0.0040
     24 C          59.1633   87.2193    8.9511 C.3     1  UNL1        0.0025
     25 C          59.6830   86.4503    7.7727 C.3     1  UNL1        0.0270
     26 C          61.0245   85.8892    8.1406 C.3     1  UNL1        0.0897
     27 O          60.7151   85.4669    6.7349 O.3     1  UNL1       -0.3867
     28 C          62.1749   85.0672    7.6396 C.3     1  UNL1        0.0270
     29 C          63.1953   84.9814    8.7358 C.3     1  UNL1        0.0025
     30 C          62.6755   85.7504    9.9141 C.3     1  UNL1        0.0040
     31 H          61.4472   84.9326    6.3892 H       1  UNL1        0.2102
@<TRIPOS>BOND
     1     9    10    2
     2    10    11    2
     3    10    12    1
     4    12    14    1
     5    14    15   ar
     6    15    16   ar
     7    16    17   ar
     8    17    18   ar
     9    10     1    1
    10     1     2   ar
    11     2     3   ar
    12     3     4    1
    13     3     5   ar
    14     5    19    1
    15    19    21    1
    16    22    21    1
    17    22    23    1
    18    23    24    1
    19    24    25    1
    20    25    26    1
    21    26    27    1
    22    26    28    1
    23    28    29    1
    24    29    30    1
    25     5     6   ar
    26     6     7   ar
    27     7     8    1
    28    18    14   ar
    29     7     1   ar
    30    26    22    1
    31    30    22    1
    32    12    13    1
    33    19    20    1
    34    27    31    1
@<TRIPOS>MOLECULE
*****
 31 34 0 0 0
SMALL
GASTEIGER

@<TRIPOS>ATOM
      1 C          63.8803   91.0014   11.9984 C.ar    1  UNL1        0.1534
      2 C          62.8764   91.1523   10.8941 C.ar    1  UNL1        0.0351
      3 C          61.8626   90.0743   10.6497 C.ar    1  UNL1        0.0722
      4 CL         60.8586   90.2252    9.5454 Cl      1  UNL1       -0.0809
      5 C          61.8525   88.8452   11.5095 C.ar    1  UNL1        0.0577
      6 C          62.8564   88.6943   12.6138 C.ar    1  UNL1        0.0462
      7 C          63.8703   89.7724   12.8582 C.ar    1  UNL1        0.1602
      8 F          64.8742   89.6214   13.9625 F       1  UNL1       -0.2027
      9 O          65.2845   92.0405   10.7950 O.2     1  UNL1       -0.1498
     10 S          64.8941   92.0795   12.2428 S.O2    1  UNL1        0.0772
     11 O          64.5037   92.1186   13.6905 O.2     1  UNL1       -0.1498
     12 N          65.9079   93.1577   12.4871 N.pl3   1  UNL1       -0.1936
     13 H          65.9415   93.9448   11.8966 H       1  UNL1        0.1758
     14 C          66.8707   93.0367   13.6310 C.ar    1  UNL1        0.1786
     15 N          67.0280   94.0139   14.7580 N.ar    1  UNL1       -0.2214
     16 C          68.0997   93.4984   15.6723 C.ar    1  UNL1        0.1079
     17 C          68.6047   92.2026   15.1102 C.ar    1  UNL1        0.0588
     18 S          67.8451   91.9172   13.8486 S.2     1  UNL1       -0.0497
     19 N          60.8387   87.7671   11.2650 N.pl3   1  UNL1       -0.3319
     20 H          59.8782   87.9668   11.3477 H       1  UNL1        0.1468
     21 C          61.2882   86.3849   10.8945 C.3     1  UNL1        0.0892
     22 C          61.3691   85.9842    9.4513 C.3     1  UNL1        0.0405
     23 C          60.1056   86.7693    9.6442 C.3     1  UNL1        0.0040
     24 C          59.4057   86.8538    8.3202 C.3     1  UNL1        0.0025
     25 C          60.2366   86.1209    7.3090 C.3     1  UNL1        0.0270
     26 C          61.4501   85.5835    8.0080 C.3     1  UNL1        0.0897
     27 O          61.5310   85.1827    6.5648 O.3     1  UNL1       -0.3867
     28 C          62.7135   84.7983    7.8151 C.3     1  UNL1        0.0270
     29 C          63.4135   84.7138    9.1392 C.3     1  UNL1        0.0025
     30 C          62.5825   85.4467   10.1503 C.3     1  UNL1        0.0040
     31 H          62.3424   84.6724    6.4160 H       1  UNL1        0.2102
@<TRIPOS>BOND
     1     9    10    2
     2    10    11    2
     3    10    12    1
     4    12    14    1
     5    14    15   ar
     6    15    16   ar
     7    16    17   ar
     8    17    18   ar
     9    10     1    1
    10     1     2   ar
    11     2     3   ar
    12     3     4    1
    13     3     5   ar
    14     5    19    1
    15    19    21    1
    16    22    21    1
    17    22    23    1
    18    23    24    1
    19    24    25    1
    20    25    26    1
    21    26    27    1
    22    26    28    1
    23    28    29    1
    24    29    30    1
    25     5     6   ar
    26     6     7   ar
    27     7     8    1
    28    18    14   ar
    29     7     1   ar
    30    26    22    1
    31    30    22    1
    32    12    13    1
    33    19    20    1
    34    27    31    1
@<TRIPOS>MOLECULE
*****
 31 34 0 0 0
SMALL
GASTEIGER

@<TRIPOS>ATOM
      1 C          63.6632   85.5690   13.7942 C.ar    1  UNL1        0.1534
      2 C          63.0249   85.8924   12.4758 C.ar    1  UNL1        0.0351
      3 C          62.9417   87.3164   12.0120 C.ar    1  UNL1        0.0722
      4 CL         62.3034   87.6399   10.6936 Cl      1  UNL1       -0.0809
      5 C          63.4969   88.4172   12.8665 C.ar    1  UNL1        0.0577
      6 C          64.1352   88.0938   14.1848 C.ar    1  UNL1        0.0462
      7 C          64.2183   86.6697   14.6487 C.ar    1  UNL1        0.1602
      8 F          64.8566   86.3464   15.9670 F       1  UNL1       -0.2027
      9 O          65.1958   84.1046   13.8741 O.2     1  UNL1       -0.1498
     10 S          63.7463   84.1450   14.2579 S.O2    1  UNL1        0.0772
     11 O          62.2968   84.1853   14.6416 O.2     1  UNL1       -0.1498
     12 N          63.8295   82.7209   14.7216 N.pl3   1  UNL1       -0.1936
     13 H          64.2122   82.5122   15.6043 H       1  UNL1        0.1758
     14 C          63.3295   81.6148   13.8403 C.ar    1  UNL1        0.1786
     15 N          62.7292   80.3208   14.3044 N.ar    1  UNL1       -0.2214
     16 C          62.3708   79.5147   13.0912 C.ar    1  UNL1        0.1079
     17 C          62.7495   80.3105   11.8774 C.ar    1  UNL1        0.0588
     18 S          63.3421   81.6084   12.3404 S.2     1  UNL1       -0.0497
     19 N          63.4137   89.8412   12.4027 N.pl3   1  UNL1       -0.3319
     20 H          63.0788   90.0461   11.4999 H       1  UNL1        0.1468
     21 C          63.8409   90.9531   13.3144 C.3     1  UNL1        0.0892
     22 C          64.9334   91.8906   12.8930 C.3     1  UNL1        0.0405
     23 C          65.1074   91.6033   14.3549 C.3     1  UNL1        0.0040
     24 C          66.3075   92.3633   14.8370 C.3     1  UNL1        0.0025
     25 C          66.8751   93.1202   13.6731 C.3     1  UNL1        0.0270
     26 C          66.0259   92.8281   12.4716 C.3     1  UNL1        0.0897
     27 O          67.1184   93.7656   12.0501 O.3     1  UNL1       -0.3867
     28 C          65.8519   93.1154   11.0097 C.3     1  UNL1        0.0270
     29 C          64.6518   92.3555   10.5275 C.3     1  UNL1        0.0025
     30 C          64.0842   91.5985   11.6916 C.3     1  UNL1        0.0040
     31 H          67.0259   93.9661   11.1056 H       1  UNL1        0.2102
@<TRIPOS>BOND
     1     9    10    2
     2    10    11    2
     3    10    12    1
     4    12    14    1
     5    14    15   ar
     6    15    16   ar
     7    16    17   ar
     8    17    18   ar
     9    10     1    1
    10     1     2   ar
    11     2     3   ar
    12     3     4    1
    13     3     5   ar
    14     5    19    1
    15    19    21    1
    16    22    21    1
    17    22    23    1
    18    23    24    1
    19    24    25    1
    20    25    26    1
    21    26    27    1
    22    26    28    1
    23    28    29    1
    24    29    30    1
    25     5     6   ar
    26     6     7   ar
    27     7     8    1
    28    18    14   ar
    29     7     1   ar
    30    26    22    1
    31    30    22    1
    32    12    13    1
    33    19    20    1
    34    27    31    1
@<TRIPOS>MOLECULE
*****
 31 34 0 0 0
SMALL
GASTEIGER

@<TRIPOS>ATOM
      1 C          63.3509   85.5698   15.2600 C.ar    1  UNL1        0.1534
      2 C          63.1081   86.4557   16.4460 C.ar    1  UNL1        0.0351
      3 C          63.4316   87.9182   16.3684 C.ar    1  UNL1        0.0722
      4 CL         63.1888   88.8041   17.5543 Cl      1  UNL1       -0.0809
      5 C          63.9979   88.4951   15.1049 C.ar    1  UNL1        0.0577
      6 C          64.2407   87.6094   13.9189 C.ar    1  UNL1        0.0462
      7 C          63.9172   86.1467   13.9965 C.ar    1  UNL1        0.1602
      8 F          64.1600   85.2610   12.8106 F       1  UNL1       -0.2027
      9 O          64.4919   83.7828   15.3270 O.2     1  UNL1       -0.1498
     10 S          63.0274   84.1073   15.3377 S.O2    1  UNL1        0.0772
     11 O          61.5630   84.4316   15.3483 O.2     1  UNL1       -0.1498
     12 N          62.7040   82.6446   15.4154 N.pl3   1  UNL1       -0.1936
     13 H          62.5023   82.2306   16.2855 H       1  UNL1        0.1758
     14 C          62.6878   81.8127   14.1673 C.ar    1  UNL1        0.1786
     15 N          62.6736   80.3140   14.1068 N.ar    1  UNL1       -0.2214
     16 C          62.6601   79.9085   12.6627 C.ar    1  UNL1        0.1079
     17 C          62.6660   81.1566   11.8307 C.ar    1  UNL1        0.0588
     18 S          62.6831   82.3334   12.7606 S.2     1  UNL1       -0.0497
     19 N          64.3214   89.9578   15.0273 N.pl3   1  UNL1       -0.3319
     20 H          64.8223   90.3905   15.7561 H       1  UNL1        0.1468
     21 C          63.8817   90.7612   13.8394 C.3     1  UNL1        0.0892
     22 C          64.8683   91.6257   13.1119 C.3     1  UNL1        0.0405
     23 C          65.2809   91.5630   14.5527 C.3     1  UNL1        0.0040
     24 C          66.5225   92.3888   14.7156 C.3     1  UNL1        0.0025
     25 C          66.8772   92.9618   13.3755 C.3     1  UNL1        0.0270
     26 C          65.8549   92.4902   12.3844 C.3     1  UNL1        0.0897
     27 O          66.8415   93.3547   11.6568 O.3     1  UNL1       -0.3867
     28 C          65.4423   92.5529   10.9436 C.3     1  UNL1        0.0270
     29 C          64.2007   91.7271   10.7806 C.3     1  UNL1        0.0025
     30 C          63.8459   91.1541   12.1207 C.3     1  UNL1        0.0040
     31 H          66.5942   93.4100   10.7205 H       1  UNL1        0.2102
@<TRIPOS>BOND
     1     9    10    2
     2    10    11    2
     3    10    12    1
     4    12    14    1
     5    14    15   ar
     6    15    16   ar
     7    16    17   ar
     8    17    18   ar
     9    10     1    1
    10     1     2   ar
    11     2     3   ar
    12     3     4    1
    13     3     5   ar
    14     5    19    1
    15    19    21    1
    16    22    21    1
    17    22    23    1
    18    23    24    1
    19    24    25    1
    20    25    26    1
    21    26    27    1
    22    26    28    1
    23    28    29    1
    24    29    30    1
    25     5     6   ar
    26     6     7   ar
    27     7     8    1
    28    18    14   ar
    29     7     1   ar
    30    26    22    1
    31    30    22    1
    32    12    13    1
    33    19    20    1
    34    27    31    1
