@<TRIPOS>MOLECULE
*****
 33 36 0 0 0
SMALL
GASTEIGER

@<TRIPOS>ATOM
      1 C          63.4563   89.5875   14.8198 C.ar    1  UNL1        0.1383
      2 C          64.6957   90.4138   14.6434 C.ar    1  UNL1        0.0366
      3 C          64.9579   91.1033   13.3374 C.ar    1  UNL1       -0.0014
      4 C          63.9806   90.9666   12.2077 C.ar    1  UNL1       -0.0233
      5 C          62.7412   90.1404   12.3841 C.ar    1  UNL1       -0.0086
      6 C          62.4791   89.4508   13.6901 C.ar    1  UNL1        0.0336
      7 C          61.7639   90.0036   11.2543 C.3     1  UNL1        0.0803
      8 N          62.0260   90.6932    9.9483 N.3     1  UNL1       -0.2946
      9 C          63.2655   91.5195    9.7719 C.3     1  UNL1        0.0735
     10 C          64.2427   91.6562   10.9016 C.3     1  UNL1        0.0432
     11 H          61.2331   91.3116    9.7775 H       1  UNL1        0.1235
     12 C          60.5245   89.1774   11.4307 C.3     1  UNL1        0.0360
     13 C          59.9332   90.2493   12.2975 C.3     1  UNL1        0.0057
     14 C          58.6938   89.4230   12.4738 C.3     1  UNL1        0.0008
     15 C          59.2851   88.3510   11.6071 C.3     1  UNL1        0.0057
     16 C          61.1158   88.1054   10.5640 C.ar    1  UNL1       -0.0212
     17 C          60.6846   87.9750    9.1332 C.ar    1  UNL1       -0.0034
     18 C          61.2759   86.9030    8.2664 C.ar    1  UNL1        0.0111
     19 C          62.2984   85.9615    8.8304 C.ar    1  UNL1        0.0577
     20 CL         62.8897   84.8895    7.9637 Cl      1  UNL1       -0.0822
     21 C          62.7296   86.0920   10.2612 C.ar    1  UNL1        0.0111
     22 C          62.1383   87.1639   11.1279 C.ar    1  UNL1       -0.0034
     23 O          63.1942   88.8979   16.1259 O.3     1  UNL1       -0.4739
     24 C          63.5119   87.4403   16.2814 C.3     1  UNL1        0.2241
     25 C          64.2604   86.7164   15.2017 C.3     1  UNL1        0.1383
     26 N          63.5137   85.8952   14.1926 N.3     1  UNL1       -0.1795
     27 H          62.5818   86.3022   14.1133 H       1  UNL1        0.1486
     28 S          63.3262   84.4236   14.4142 S.O2    1  UNL1        0.0409
     29 O          62.0116   84.6921   15.0848 O.2     1  UNL1       -0.1575
     30 O          64.6407   84.1551   13.7436 O.2     1  UNL1       -0.1575
     31 C          63.1386   82.9520   14.6358 C.3     1  UNL1        0.1688
     32 C          61.3383   81.1518   14.1175 C.3     1  UNL1        0.0019
     33 C          62.3652   82.1365   13.6422 C.3     1  UNL1        0.0270
@<TRIPOS>BOND
     1    32    33    1
     2    33    31    1
     3    31    28    1
     4    28    29    2
     5    28    30    2
     6    28    26    1
     7    26    25    1
     8    25    24    1
     9    24    23    1
    10    23     1    1
    11     1     2   ar
    12     2     3   ar
    13     3     4   ar
    14     4     5   ar
    15     5     6   ar
    16     5     7    1
    17     7    12    1
    18    12    16    1
    19    16    17   ar
    20    17    18   ar
    21    18    19   ar
    22    19    20    1
    23    19    21   ar
    24    21    22   ar
    25    12    13    1
    26    13    14    1
    27    14    15    1
    28     7     8    1
    29     8     9    1
    30     9    10    1
    31     6     1   ar
    32    15    12    1
    33    10     4    1
    34    22    16   ar
    35    26    27    1
    36     8    11    1
@<TRIPOS>MOLECULE
*****
 33 36 0 0 0
SMALL
GASTEIGER

@<TRIPOS>ATOM
      1 C          63.9210   89.8553   13.4304 C.ar    1  UNL1        0.1383
      2 C          64.6144   88.9544   14.4089 C.ar    1  UNL1        0.0366
      3 C          64.4011   87.4710   14.3440 C.ar    1  UNL1       -0.0014
      4 C          63.4942   86.8886   13.3008 C.ar    1  UNL1       -0.0233
      5 C          62.8008   87.7896   12.3223 C.ar    1  UNL1       -0.0086
      6 C          63.0142   89.2729   12.3872 C.ar    1  UNL1        0.0336
      7 C          61.8939   87.2072   11.2790 C.3     1  UNL1        0.0803
      8 N          61.6805   85.7238   11.2142 N.3     1  UNL1       -0.2946
      9 C          62.3741   84.8229   12.1927 C.3     1  UNL1        0.0735
     10 C          63.2809   85.4053   13.2359 C.3     1  UNL1        0.0432
     11 H          61.9698   85.4252   10.2828 H       1  UNL1        0.1235
     12 C          61.2005   88.1081   10.3006 C.3     1  UNL1        0.0360
     13 C          60.9855   89.1212   11.3857 C.3     1  UNL1        0.0057
     14 C          60.2921   90.0221   10.4071 C.3     1  UNL1        0.0008
     15 C          60.5070   89.0091    9.3220 C.3     1  UNL1        0.0057
     16 C          61.4154   87.0951    9.2154 C.ar    1  UNL1       -0.0212
     17 C          62.7832   86.5259    8.9809 C.ar    1  UNL1       -0.0034
     18 C          62.9981   85.5128    7.8957 C.ar    1  UNL1        0.0111
     19 C          61.8451   85.0689    7.0452 C.ar    1  UNL1        0.0577
     20 CL         62.0600   84.0558    5.9600 Cl      1  UNL1       -0.0822
     21 C          60.4772   85.6381    7.2797 C.ar    1  UNL1        0.0111
     22 C          60.2623   86.6511    8.3648 C.ar    1  UNL1       -0.0034
     23 O          64.1343   91.3386   13.4952 O.3     1  UNL1       -0.4739
     24 C          65.3770   91.8906   14.1284 C.3     1  UNL1        0.2241
     25 C          66.2809   92.7944   13.3434 C.3     1  UNL1        0.1383
     26 N          65.6977   93.7870   12.3817 N.3     1  UNL1       -0.1795
     27 H          64.6985   93.5902   12.3252 H       1  UNL1        0.1486
     28 S          66.2064   93.8537   10.9722 S.O2    1  UNL1        0.0409
     29 O          66.8746   95.1620   11.2752 O.2     1  UNL1       -0.1575
     30 O          65.5383   92.5453   10.6692 O.2     1  UNL1       -0.1575
     31 C          66.7151   93.9203    9.5627 C.3     1  UNL1        0.1688
     32 C          68.6715   92.3429    8.9034 C.3     1  UNL1        0.0019
     33 C          68.1728   93.7064    9.2805 C.3     1  UNL1        0.0270
@<TRIPOS>BOND
     1    32    33    1
     2    33    31    1
     3    31    28    1
     4    28    29    2
     5    28    30    2
     6    28    26    1
     7    26    25    1
     8    25    24    1
     9    24    23    1
    10    23     1    1
    11     1     2   ar
    12     2     3   ar
    13     3     4   ar
    14     4     5   ar
    15     5     6   ar
    16     5     7    1
    17     7    12    1
    18    12    16    1
    19    16    17   ar
    20    17    18   ar
    21    18    19   ar
    22    19    20    1
    23    19    21   ar
    24    21    22   ar
    25    12    13    1
    26    13    14    1
    27    14    15    1
    28     7     8    1
    29     8     9    1
    30     9    10    1
    31     6     1   ar
    32    15    12    1
    33    10     4    1
    34    22    16   ar
    35    26    27    1
    36     8    11    1
@<TRIPOS>MOLECULE
*****
 33 36 0 0 0
SMALL
GASTEIGER

@<TRIPOS>ATOM
      1 C          63.8444   90.1163   13.1170 C.ar    1  UNL1        0.1383
      2 C          64.5817   89.2969   14.1343 C.ar    1  UNL1        0.0366
      3 C          64.3910   87.8098   14.1808 C.ar    1  UNL1       -0.0014
      4 C          63.4628   87.1421   13.2099 C.ar    1  UNL1       -0.0233
      5 C          62.7255   87.9614   12.1926 C.ar    1  UNL1       -0.0086
      6 C          62.9162   89.4485   12.1462 C.ar    1  UNL1        0.0336
      7 C          61.7973   87.2936   11.2217 C.3     1  UNL1        0.0803
      8 N          61.6065   85.8065   11.2681 N.3     1  UNL1       -0.2946
      9 C          62.3439   84.9872   12.2855 C.3     1  UNL1        0.0735
     10 C          63.2721   85.6550   13.2564 C.3     1  UNL1        0.0432
     11 H          61.8725   85.4467   10.3515 H       1  UNL1        0.1235
     12 C          61.0599   88.1129   10.2044 C.3     1  UNL1        0.0360
     13 C          60.7587   89.1430   11.2523 C.3     1  UNL1        0.0057
     14 C          60.0213   89.9623   10.2349 C.3     1  UNL1        0.0008
     15 C          60.3225   88.9322    9.1870 C.3     1  UNL1        0.0057
     16 C          61.3611   87.0828    9.1565 C.ar    1  UNL1       -0.0212
     17 C          60.2688   86.5881    8.2553 C.ar    1  UNL1       -0.0034
     18 C          60.5701   85.5580    7.2073 C.ar    1  UNL1        0.0111
     19 C          61.9635   85.0226    7.0606 C.ar    1  UNL1        0.0577
     20 CL         62.2648   83.9925    6.0127 Cl      1  UNL1       -0.0822
     21 C          63.0558   85.5173    7.9618 C.ar    1  UNL1        0.0111
     22 C          62.7546   86.5474    9.0097 C.ar    1  UNL1       -0.0034
     23 O          64.0351   91.6033   13.0705 O.3     1  UNL1       -0.4739
     24 C          64.7132   92.2360   11.8917 C.3     1  UNL1        0.2241
     25 C          65.7259   93.3223   12.1028 C.3     1  UNL1        0.1383
     26 N          66.0929   93.7453   13.4944 N.3     1  UNL1       -0.1795
     27 H          66.6340   94.6056   13.4076 H       1  UNL1        0.1486
     28 S          66.8835   92.8233   14.3747 S.O2    1  UNL1        0.0409
     29 O          67.9214   92.6877   13.3003 O.2     1  UNL1       -0.1575
     30 O          65.8455   92.9589   15.4490 O.2     1  UNL1       -0.1575
     31 C          67.6741   91.9013   15.2549 C.3     1  UNL1        0.1688
     32 C          69.0642   93.9184   16.1204 C.3     1  UNL1        0.0019
     33 C          68.7802   92.4455   16.1096 C.3     1  UNL1        0.0270
@<TRIPOS>BOND
     1    32    33    1
     2    33    31    1
     3    31    28    1
     4    28    29    2
     5    28    30    2
     6    28    26    1
     7    26    25    1
     8    25    24    1
     9    24    23    1
    10    23     1    1
    11     1     2   ar
    12     2     3   ar
    13     3     4   ar
    14     4     5   ar
    15     5     6   ar
    16     5     7    1
    17     7    12    1
    18    12    16    1
    19    16    17   ar
    20    17    18   ar
    21    18    19   ar
    22    19    20    1
    23    19    21   ar
    24    21    22   ar
    25    12    13    1
    26    13    14    1
    27    14    15    1
    28     7     8    1
    29     8     9    1
    30     9    10    1
    31     6     1   ar
    32    15    12    1
    33    10     4    1
    34    22    16   ar
    35    26    27    1
    36     8    11    1
@<TRIPOS>MOLECULE
*****
 33 36 0 0 0
SMALL
GASTEIGER

@<TRIPOS>ATOM
      1 C          62.8468   85.4672   11.7420 C.ar    1  UNL1        0.1383
      2 C          63.1403   84.6738   10.5033 C.ar    1  UNL1        0.0366
      3 C          62.5329   85.0776    9.1926 C.ar    1  UNL1       -0.0014
      4 C          61.6320   86.2747    9.1205 C.ar    1  UNL1       -0.0233
      5 C          61.3385   87.0681   10.3592 C.ar    1  UNL1       -0.0086
      6 C          61.9459   86.6643   11.6699 C.ar    1  UNL1        0.0336
      7 C          60.4376   88.2653   10.2871 C.3     1  UNL1        0.0803
      8 N          59.8302   88.6690    8.9764 N.3     1  UNL1       -0.2946
      9 C          60.1238   87.8756    7.7376 C.3     1  UNL1        0.0735
     10 C          61.0247   86.6785    7.8097 C.3     1  UNL1        0.0432
     11 H          60.1348   89.6250    8.7928 H       1  UNL1        0.1235
     12 C          60.1441   89.0587   11.5258 C.3     1  UNL1        0.0360
     13 C          58.8684   88.2924   11.7143 C.3     1  UNL1        0.0057
     14 C          58.5749   89.0859   12.9530 C.3     1  UNL1        0.0008
     15 C          59.8506   89.8521   12.7645 C.3     1  UNL1        0.0057
     16 C          61.4197   89.8249   11.3373 C.ar    1  UNL1       -0.0212
     17 C          62.3936   89.9506   12.4711 C.ar    1  UNL1       -0.0034
     18 C          63.6693   90.7169   12.2826 C.ar    1  UNL1        0.0111
     19 C          63.9710   91.3574   10.9602 C.ar    1  UNL1        0.0577
     20 CL         65.2467   92.1237   10.7716 Cl      1  UNL1       -0.0822
     21 C          62.9971   91.2317    9.8264 C.ar    1  UNL1        0.0111
     22 C          61.7214   90.4655   10.0149 C.ar    1  UNL1       -0.0034
     23 O          63.4541   85.0635   13.0528 O.3     1  UNL1       -0.4739
     24 C          62.8861   83.9047   13.8173 C.3     1  UNL1        0.2241
     25 C          62.9506   83.8910   15.3159 C.3     1  UNL1        0.1383
     26 N          62.0254   84.7609   16.1144 N.3     1  UNL1       -0.1795
     27 H          61.2852   85.0629   15.4809 H       1  UNL1        0.1486
     28 S          62.5500   85.9947   16.7869 S.O2    1  UNL1        0.0409
     29 O          63.9540   85.5657   16.4789 O.2     1  UNL1       -0.1575
     30 O          61.1461   86.4237   17.0950 O.2     1  UNL1       -0.1575
     31 C          63.0747   87.2286   17.4595 C.3     1  UNL1        0.1688
     32 C          63.7638   89.0366   15.7256 C.3     1  UNL1        0.0019
     33 C          62.8614   88.5737   16.8308 C.3     1  UNL1        0.0270
@<TRIPOS>BOND
     1    32    33    1
     2    33    31    1
     3    31    28    1
     4    28    29    2
     5    28    30    2
     6    28    26    1
     7    26    25    1
     8    25    24    1
     9    24    23    1
    10    23     1    1
    11     1     2   ar
    12     2     3   ar
    13     3     4   ar
    14     4     5   ar
    15     5     6   ar
    16     5     7    1
    17     7    12    1
    18    12    16    1
    19    16    17   ar
    20    17    18   ar
    21    18    19   ar
    22    19    20    1
    23    19    21   ar
    24    21    22   ar
    25    12    13    1
    26    13    14    1
    27    14    15    1
    28     7     8    1
    29     8     9    1
    30     9    10    1
    31     6     1   ar
    32    15    12    1
    33    10     4    1
    34    22    16   ar
    35    26    27    1
    36     8    11    1
@<TRIPOS>MOLECULE
*****
 33 36 0 0 0
SMALL
GASTEIGER

@<TRIPOS>ATOM
      1 C          63.8944   86.2479   13.3908 C.ar    1  UNL1        0.1383
      2 C          63.1231   85.6638   12.2446 C.ar    1  UNL1        0.0366
      3 C          62.3602   86.5634   11.3180 C.ar    1  UNL1       -0.0014
      4 C          62.3687   88.0472   11.5375 C.ar    1  UNL1       -0.0233
      5 C          63.1400   88.6314   12.6836 C.ar    1  UNL1       -0.0086
      6 C          63.9029   87.7317   13.6103 C.ar    1  UNL1        0.0336
      7 C          63.1485   90.1152   12.9032 C.3     1  UNL1        0.0803
      8 N          62.3856   91.0149   11.9765 N.3     1  UNL1       -0.2946
      9 C          61.6142   90.4306   10.8303 C.3     1  UNL1        0.0735
     10 C          61.6058   88.9468   10.6108 C.3     1  UNL1        0.0432
     11 H          63.0610   91.6656   11.5756 H       1  UNL1        0.1235
     12 C          63.9199   90.6994   14.0493 C.3     1  UNL1        0.0360
     13 C          62.9603   90.0707   15.0156 C.3     1  UNL1        0.0057
     14 C          63.7317   90.6549   16.1618 C.3     1  UNL1        0.0008
     15 C          64.6914   91.2836   15.1955 C.3     1  UNL1        0.0057
     16 C          64.8795   91.3281   13.0830 C.ar    1  UNL1       -0.0212
     17 C          64.4116   91.7305   11.7158 C.ar    1  UNL1       -0.0034
     18 C          65.3713   92.3593   10.7495 C.ar    1  UNL1        0.0111
     19 C          66.7989   92.5855   11.1504 C.ar    1  UNL1        0.0577
     20 CL         67.7586   93.2143   10.1840 Cl      1  UNL1       -0.0822
     21 C          67.2669   92.1831   12.5175 C.ar    1  UNL1        0.0111
     22 C          66.3072   91.5544   13.4838 C.ar    1  UNL1       -0.0034
     23 O          64.6573   85.3483   14.3174 O.3     1  UNL1       -0.4739
     24 C          63.9564   84.6880   15.4674 C.3     1  UNL1        0.2241
     25 C          62.7155   83.8807   15.2258 C.3     1  UNL1        0.1383
     26 N          62.8001   82.3862   15.1284 N.3     1  UNL1       -0.1795
     27 H          63.6034   82.0997   15.6878 H       1  UNL1        0.1486
     28 S          62.9494   81.7293   13.7881 S.O2    1  UNL1        0.0409
     29 O          62.0223   82.7441   13.1875 O.2     1  UNL1       -0.1575
     30 O          63.8764   80.7145   14.3888 O.2     1  UNL1       -0.1575
     31 C          63.0986   81.0724   12.4479 C.3     1  UNL1        0.1688
     32 C          64.3374   82.5488   10.7056 C.3     1  UNL1        0.0019
     33 C          63.0767   81.9030   11.1990 C.3     1  UNL1        0.0270
@<TRIPOS>BOND
     1    32    33    1
     2    33    31    1
     3    31    28    1
     4    28    29    2
     5    28    30    2
     6    28    26    1
     7    26    25    1
     8    25    24    1
     9    24    23    1
    10    23     1    1
    11     1     2   ar
    12     2     3   ar
    13     3     4   ar
    14     4     5   ar
    15     5     6   ar
    16     5     7    1
    17     7    12    1
    18    12    16    1
    19    16    17   ar
    20    17    18   ar
    21    18    19   ar
    22    19    20    1
    23    19    21   ar
    24    21    22   ar
    25    12    13    1
    26    13    14    1
    27    14    15    1
    28     7     8    1
    29     8     9    1
    30     9    10    1
    31     6     1   ar
    32    15    12    1
    33    10     4    1
    34    22    16   ar
    35    26    27    1
    36     8    11    1
@<TRIPOS>MOLECULE
*****
 33 36 0 0 0
SMALL
GASTEIGER

@<TRIPOS>ATOM
      1 C          60.7170   87.2399   11.1148 C.ar    1  UNL1        0.1383
      2 C          60.6673   87.1255    9.6201 C.ar    1  UNL1        0.0366
      3 C          61.5636   86.1532    8.9120 C.ar    1  UNL1       -0.0014
      4 C          62.5096   85.2953    9.6988 C.ar    1  UNL1       -0.0233
      5 C          62.5593   85.4097   11.1936 C.ar    1  UNL1       -0.0086
      6 C          61.6630   86.3820   11.9016 C.ar    1  UNL1        0.0336
      7 C          63.5054   84.5518   11.9804 C.3     1  UNL1        0.0803
      8 N          64.4017   83.5795   11.2724 N.3     1  UNL1       -0.2946
      9 C          64.3520   83.4651    9.7775 C.3     1  UNL1        0.0735
     10 C          63.4059   84.3230    8.9908 C.3     1  UNL1        0.0432
     11 H          64.1866   82.6550   11.6457 H       1  UNL1        0.1235
     12 C          63.5551   84.6662   13.4752 C.3     1  UNL1        0.0360
     13 C          63.9663   86.1034   13.3515 C.3     1  UNL1        0.0057
     14 C          64.0161   86.2177   14.8464 C.3     1  UNL1        0.0008
     15 C          63.6049   84.7806   14.9700 C.3     1  UNL1        0.0057
     16 C          63.1439   83.2290   13.5988 C.ar    1  UNL1       -0.0212
     17 C          64.1391   82.1386   13.3329 C.ar    1  UNL1       -0.0034
     18 C          63.7278   80.7014   13.4566 C.ar    1  UNL1        0.0111
     19 C          62.3215   80.3546   13.8462 C.ar    1  UNL1        0.0577
     20 CL         61.9102   78.9173   13.9699 Cl      1  UNL1       -0.0822
     21 C          61.3263   81.4449   14.1122 C.ar    1  UNL1        0.0111
     22 C          61.7375   82.8821   13.9885 C.ar    1  UNL1       -0.0034
     23 O          59.8207   88.2121   11.8229 O.3     1  UNL1       -0.4739
     24 C          60.1746   89.6693   11.8588 C.3     1  UNL1        0.2241
     25 C          61.6135   90.0908   11.9039 C.3     1  UNL1        0.1383
     26 N          62.3438   90.1265   13.2137 N.3     1  UNL1       -0.1795
     27 H          61.7223   90.5773   13.8852 H       1  UNL1        0.1486
     28 S          63.6687   90.8225   13.3148 S.O2    1  UNL1        0.0409
     29 O          63.4684   90.9890   14.7921 O.2     1  UNL1       -0.1575
     30 O          63.8690   90.6561   11.8376 O.2     1  UNL1       -0.1575
     31 C          64.9935   91.5186   13.4160 C.3     1  UNL1        0.1688
     32 C          67.2026   91.5957   14.7814 C.3     1  UNL1        0.0019
     33 C          65.7033   91.5921   14.7355 C.3     1  UNL1        0.0270
@<TRIPOS>BOND
     1    32    33    1
     2    33    31    1
     3    31    28    1
     4    28    29    2
     5    28    30    2
     6    28    26    1
     7    26    25    1
     8    25    24    1
     9    24    23    1
    10    23     1    1
    11     1     2   ar
    12     2     3   ar
    13     3     4   ar
    14     4     5   ar
    15     5     6   ar
    16     5     7    1
    17     7    12    1
    18    12    16    1
    19    16    17   ar
    20    17    18   ar
    21    18    19   ar
    22    19    20    1
    23    19    21   ar
    24    21    22   ar
    25    12    13    1
    26    13    14    1
    27    14    15    1
    28     7     8    1
    29     8     9    1
    30     9    10    1
    31     6     1   ar
    32    15    12    1
    33    10     4    1
    34    22    16   ar
    35    26    27    1
    36     8    11    1
@<TRIPOS>MOLECULE
*****
 33 36 0 0 0
SMALL
GASTEIGER

@<TRIPOS>ATOM
      1 C          64.1532   89.3107   13.5157 C.ar    1  UNL1        0.1383
      2 C          63.4155   90.1507   12.5157 C.ar    1  UNL1        0.0366
      3 C          62.5250   89.4987   11.4999 C.ar    1  UNL1       -0.0014
      4 C          62.3723   88.0066   11.4840 C.ar    1  UNL1       -0.0233
      5 C          63.1100   87.1665   12.4840 C.ar    1  UNL1       -0.0086
      6 C          64.0004   87.8186   13.4999 C.ar    1  UNL1        0.0336
      7 C          62.9572   85.6744   12.4682 C.3     1  UNL1        0.0803
      8 N          62.0668   85.0223   11.4524 N.3     1  UNL1       -0.2946
      9 C          61.3290   85.8625   10.4523 C.3     1  UNL1        0.0735
     10 C          61.4818   87.3546   10.4682 C.3     1  UNL1        0.0432
     11 H          61.3634   84.4968   11.9715 H       1  UNL1        0.1235
     12 C          63.6949   84.8343   13.4682 C.3     1  UNL1        0.0360
     13 C          63.8500   86.0310   14.3592 C.3     1  UNL1        0.0057
     14 C          64.5877   85.1909   15.3592 C.3     1  UNL1        0.0008
     15 C          64.4327   83.9942   14.4683 C.3     1  UNL1        0.0057
     16 C          63.5399   83.6376   12.5773 C.ar    1  UNL1       -0.0212
     17 C          64.3468   83.5311   11.3173 C.ar    1  UNL1       -0.0034
     18 C          64.1917   82.3343   10.4263 C.ar    1  UNL1        0.0111
     19 C          63.2298   81.2441   10.7954 C.ar    1  UNL1        0.0577
     20 CL         63.0748   80.0473    9.9044 Cl      1  UNL1       -0.0822
     21 C          62.4230   81.3507   12.0554 C.ar    1  UNL1        0.0111
     22 C          62.5780   82.5474   12.9463 C.ar    1  UNL1       -0.0034
     23 O          65.0436   89.9627   14.5316 O.3     1  UNL1       -0.4739
     24 C          64.9551   91.4413   14.7676 C.3     1  UNL1        0.2241
     25 C          65.7983   92.3818   13.9587 C.3     1  UNL1        0.1383
     26 N          65.2301   93.0328   12.7325 N.3     1  UNL1       -0.1795
     27 H          64.3536   92.5545   12.5245 H       1  UNL1        0.1486
     28 S          66.0234   93.0560   11.4597 S.O2    1  UNL1        0.0409
     29 O          67.2684   93.3554   12.2410 O.2     1  UNL1       -0.1575
     30 O          64.7785   92.7566   10.6783 O.2     1  UNL1       -0.1575
     31 C          66.8168   93.0792   10.1868 C.3     1  UNL1        0.1688
     32 C          68.8699   92.2753    8.8126 C.3     1  UNL1        0.0019
     33 C          67.9695   92.1368   10.0043 C.3     1  UNL1        0.0270
@<TRIPOS>BOND
     1    32    33    1
     2    33    31    1
     3    31    28    1
     4    28    29    2
     5    28    30    2
     6    28    26    1
     7    26    25    1
     8    25    24    1
     9    24    23    1
    10    23     1    1
    11     1     2   ar
    12     2     3   ar
    13     3     4   ar
    14     4     5   ar
    15     5     6   ar
    16     5     7    1
    17     7    12    1
    18    12    16    1
    19    16    17   ar
    20    17    18   ar
    21    18    19   ar
    22    19    20    1
    23    19    21   ar
    24    21    22   ar
    25    12    13    1
    26    13    14    1
    27    14    15    1
    28     7     8    1
    29     8     9    1
    30     9    10    1
    31     6     1   ar
    32    15    12    1
    33    10     4    1
    34    22    16   ar
    35    26    27    1
    36     8    11    1
@<TRIPOS>MOLECULE
*****
 33 36 0 0 0
SMALL
GASTEIGER

@<TRIPOS>ATOM
      1 C          63.6898   90.3468   12.0003 C.ar    1  UNL1        0.1383
      2 C          64.2600   90.2477   13.3841 C.ar    1  UNL1        0.0366
      3 C          64.2437   88.9350   14.1098 C.ar    1  UNL1       -0.0014
      4 C          63.6573   87.7214   13.4516 C.ar    1  UNL1       -0.0233
      5 C          63.0871   87.8205   12.0677 C.ar    1  UNL1       -0.0086
      6 C          63.1033   89.1333   11.3421 C.ar    1  UNL1        0.0336
      7 C          62.5006   86.6069   11.4095 C.3     1  UNL1        0.0803
      8 N          62.4843   85.2942   12.1351 N.3     1  UNL1       -0.2946
      9 C          63.0546   85.1951   13.5190 C.3     1  UNL1        0.0735
     10 C          63.6410   86.4087   14.1772 C.3     1  UNL1        0.0432
     11 H          62.9998   84.6313   11.5561 H       1  UNL1        0.1235
     12 C          61.9304   86.7061   10.0256 C.3     1  UNL1        0.0360
     13 C          62.7710   85.5405    9.5958 C.3     1  UNL1        0.0057
     14 C          62.2007   85.6397    8.2119 C.3     1  UNL1        0.0008
     15 C          61.3602   86.8053    8.6418 C.3     1  UNL1        0.0057
     16 C          61.0898   87.8717   10.4555 C.ar    1  UNL1       -0.0212
     17 C          60.2879   87.7920   11.7206 C.ar    1  UNL1       -0.0034
     18 C          59.4474   88.9577   12.1505 C.ar    1  UNL1        0.0111
     19 C          59.4087   90.2029   11.3152 C.ar    1  UNL1        0.0577
     20 CL         58.5681   91.3686   11.7450 Cl      1  UNL1       -0.0822
     21 C          60.2106   90.2826   10.0500 C.ar    1  UNL1        0.0111
     22 C          61.0511   89.1170    9.6202 C.ar    1  UNL1       -0.0034
     23 O          63.7061   91.6595   11.2747 O.3     1  UNL1       -0.4739
     24 C          65.0115   92.2726   10.8626 C.3     1  UNL1        0.2241
     25 C          65.6255   93.3594   11.6944 C.3     1  UNL1        0.1383
     26 N          67.0015   93.1809   12.2645 N.3     1  UNL1       -0.1795
     27 H          67.5254   92.6146   11.5973 H       1  UNL1        0.1486
     28 S          67.1789   92.5405   13.6093 S.O2    1  UNL1        0.0409
     29 O          66.0062   93.3155   14.1330 O.2     1  UNL1       -0.1575
     30 O          68.3515   91.7655   13.0856 O.2     1  UNL1       -0.1575
     31 C          67.3563   91.9002   14.9541 C.3     1  UNL1        0.1688
     32 C          68.8418   93.7676   15.9818 C.3     1  UNL1        0.0019
     33 C          68.4948   92.3154   15.8382 C.3     1  UNL1        0.0270
@<TRIPOS>BOND
     1    32    33    1
     2    33    31    1
     3    31    28    1
     4    28    29    2
     5    28    30    2
     6    28    26    1
     7    26    25    1
     8    25    24    1
     9    24    23    1
    10    23     1    1
    11     1     2   ar
    12     2     3   ar
    13     3     4   ar
    14     4     5   ar
    15     5     6   ar
    16     5     7    1
    17     7    12    1
    18    12    16    1
    19    16    17   ar
    20    17    18   ar
    21    18    19   ar
    22    19    20    1
    23    19    21   ar
    24    21    22   ar
    25    12    13    1
    26    13    14    1
    27    14    15    1
    28     7     8    1
    29     8     9    1
    30     9    10    1
    31     6     1   ar
    32    15    12    1
    33    10     4    1
    34    22    16   ar
    35    26    27    1
    36     8    11    1
@<TRIPOS>MOLECULE
*****
 33 36 0 0 0
SMALL
GASTEIGER

@<TRIPOS>ATOM
      1 C          64.2995   88.0223   14.2178 C.ar    1  UNL1        0.1383
      2 C          64.7276   86.8351   15.0285 C.ar    1  UNL1        0.0366
      3 C          64.3532   85.4512   14.5873 C.ar    1  UNL1       -0.0014
      4 C          63.5507   85.2545   13.3354 C.ar    1  UNL1       -0.0233
      5 C          63.1226   86.4417   12.5247 C.ar    1  UNL1       -0.0086
      6 C          63.4970   87.8256   12.9659 C.ar    1  UNL1        0.0336
      7 C          62.3200   86.2450   11.2728 C.3     1  UNL1        0.0803
      8 N          61.9456   84.8611   10.8316 N.3     1  UNL1       -0.2946
      9 C          62.3738   83.6739   11.6423 C.3     1  UNL1        0.0735
     10 C          63.1763   83.8706   12.8942 C.3     1  UNL1        0.0432
     11 H          62.3339   84.7349    9.8969 H       1  UNL1        0.1235
     12 C          61.8919   87.4322   10.4621 C.3     1  UNL1        0.0360
     13 C          61.9606   88.2940   11.6879 C.3     1  UNL1        0.0057
     14 C          61.5324   89.4812   10.8771 C.3     1  UNL1        0.0008
     15 C          61.4638   88.6195    9.6513 C.3     1  UNL1        0.0057
     16 C          61.8233   86.5705    9.2363 C.ar    1  UNL1       -0.0212
     17 C          60.5141   86.3717    8.5316 C.ar    1  UNL1       -0.0034
     18 C          60.4455   85.5098    7.3058 C.ar    1  UNL1        0.0111
     19 C          61.6860   84.8468    6.7847 C.ar    1  UNL1        0.0577
     20 CL         61.6174   83.9850    5.5589 Cl      1  UNL1       -0.0822
     21 C          62.9951   85.0456    7.4894 C.ar    1  UNL1        0.0111
     22 C          63.0638   85.9074    8.7152 C.ar    1  UNL1       -0.0034
     23 O          64.6739   89.4062   14.6590 O.3     1  UNL1       -0.4739
     24 C          63.7650   90.5609   14.3581 C.3     1  UNL1        0.2241
     25 C          64.1875   91.6113   13.3742 C.3     1  UNL1        0.1383
     26 N          65.6449   91.8906   13.1547 N.3     1  UNL1       -0.1795
     27 H          66.0021   92.2903   14.0225 H       1  UNL1        0.1486
     28 S          66.0746   92.8062   12.0471 S.O2    1  UNL1        0.0409
     29 O          67.0806   93.4403   12.9614 O.2     1  UNL1       -0.1575
     30 O          65.0687   92.1722   11.1327 O.2     1  UNL1       -0.1575
     31 C          66.5043   93.7219   10.9394 C.3     1  UNL1        0.1688
     32 C          66.1318   96.2858   11.1338 C.3     1  UNL1        0.0019
     33 C          65.6962   94.9450   10.6214 C.3     1  UNL1        0.0270
@<TRIPOS>BOND
     1    32    33    1
     2    33    31    1
     3    31    28    1
     4    28    29    2
     5    28    30    2
     6    28    26    1
     7    26    25    1
     8    25    24    1
     9    24    23    1
    10    23     1    1
    11     1     2   ar
    12     2     3   ar
    13     3     4   ar
    14     4     5   ar
    15     5     6   ar
    16     5     7    1
    17     7    12    1
    18    12    16    1
    19    16    17   ar
    20    17    18   ar
    21    18    19   ar
    22    19    20    1
    23    19    21   ar
    24    21    22   ar
    25    12    13    1
    26    13    14    1
    27    14    15    1
    28     7     8    1
    29     8     9    1
    30     9    10    1
    31     6     1   ar
    32    15    12    1
    33    10     4    1
    34    22    16   ar
    35    26    27    1
    36     8    11    1
