@<TRIPOS>MOLECULE
*****
 31 33 0 0 0
SMALL
GASTEIGER

@<TRIPOS>ATOM
      1 N          57.9949   93.3880   -0.4660 N.am    1  UNL1       -0.2681
      2 C          57.6637   94.7978   -0.8567 C.2     1  UNL1        0.3077
      3 O          58.6434   95.9010   -0.5861 O.2     1  UNL1       -0.2522
      4 N          56.3527   95.1045   -1.5181 N.am    1  UNL1       -0.2632
      5 C          55.6905   96.3473   -2.0348 C.3     1  UNL1        0.1010
      6 C          54.4988   95.5382   -2.4534 C.3     1  UNL1        0.0636
      7 C          55.1610   94.2955   -1.9367 C.3     1  UNL1        0.1010
      8 H          57.3518   92.6640   -0.6436 H       1  UNL1        0.1564
      9 C          53.1879   95.8449   -3.1147 C.ar    1  UNL1        0.0001
     10 C          53.1395   96.1336   -4.5860 C.ar    1  UNL1        0.0002
     11 C          51.8286   96.4403   -5.2473 C.ar    1  UNL1        0.0336
     12 C          50.5661   96.4583   -4.4375 C.ar    1  UNL1        0.1254
     13 N          49.2551   96.7651   -5.0988 N.pl3   1  UNL1       -0.3426
     14 N          50.6145   96.1697   -2.9664 N.ar    1  UNL1       -0.2299
     15 C          51.9254   95.8630   -2.3050 C.ar    1  UNL1        0.0961
     16 H          49.2234   96.9545   -6.0644 H       1  UNL1        0.1437
     17 H          48.4265   96.7769   -4.5674 H       1  UNL1        0.1437
     18 C          61.9276   92.4679    1.5182 C.ar    1  UNL1       -0.0044
     19 C          60.7300   92.8148    2.3519 C.ar    1  UNL1       -0.0014
     20 C          59.4191   93.1215    1.6906 C.ar    1  UNL1        0.0144
     21 C          59.3058   93.0813    0.1954 C.ar    1  UNL1        0.0516
     22 C          60.5034   92.7343   -0.6384 C.ar    1  UNL1        0.0144
     23 C          61.8144   92.4276    0.0230 C.ar    1  UNL1       -0.0014
     24 C          63.2386   92.1611    2.1795 C.3     1  UNL1        0.0941
     25 C          63.3159   91.0970    3.2338 C.3     1  UNL1        0.0262
     26 C          64.4144   94.4072    1.6115 C.2     1  UNL1        0.2226
     27 O          63.1229   95.1384    1.8293 O.2     1  UNL1       -0.2751
     28 N          64.4722   92.9186    1.7866 N.am    1  UNL1       -0.3022
     29 H          65.3198   92.4387    1.6436 H       1  UNL1        0.1497
     30 C          65.6253   96.0644    0.0186 C.3     1  UNL1        0.0101
     31 C          65.6481   95.1646    1.2185 C.3     1  UNL1        0.0851
@<TRIPOS>BOND
     1    30    31    1
     2    31    26    1
     3    26    27    2
     4    26    28   am
     5    28    24    1
     6    24    25    1
     7    24    18    1
     8    18    19   ar
     9    19    20   ar
    10    20    21   ar
    11    21     1    1
    12     1     2   am
    13     2     3    2
    14     2     4   am
    15     4     5    1
    16     5     6    1
    17     6     9    1
    18     9    10   ar
    19    10    11   ar
    20    11    12   ar
    21    12    13    1
    22    12    14   ar
    23    14    15   ar
    24     6     7    1
    25    21    22   ar
    26    22    23   ar
    27    23    18   ar
    28     7     4    1
    29    15     9   ar
    30    28    29    1
    31     1     8    1
    32    13    16    1
    33    13    17    1
@<TRIPOS>MOLECULE
*****
 31 33 0 0 0
SMALL
GASTEIGER

@<TRIPOS>ATOM
      1 N          63.4993   87.2690   14.0003 N.am    1  UNL1       -0.2681
      2 C          64.3367   86.0627   14.3060 C.2     1  UNL1        0.3077
      3 O          65.4876   86.1713   15.2620 O.2     1  UNL1       -0.2522
      4 N          64.0235   84.7478   13.6557 N.am    1  UNL1       -0.2632
      5 C          64.6137   83.3699   13.7110 C.3     1  UNL1        0.1010
      6 C          63.5805   82.8883   12.7361 C.3     1  UNL1        0.0636
      7 C          62.9903   84.2661   12.6808 C.3     1  UNL1        0.1010
      8 H          62.7440   87.1977   13.3729 H       1  UNL1        0.1564
      9 C          63.2672   81.5734   12.0858 C.ar    1  UNL1        0.0001
     10 C          63.3965   81.4223   10.5990 C.ar    1  UNL1        0.0002
     11 C          63.0832   80.1074    9.9487 C.ar    1  UNL1        0.0336
     12 C          62.6407   78.9435   10.7852 C.ar    1  UNL1        0.1254
     13 N          62.3275   77.6286   10.1349 N.pl3   1  UNL1       -0.3426
     14 N          62.5115   79.0946   12.2719 N.ar    1  UNL1       -0.2299
     15 C          62.8248   80.4095   12.9222 C.ar    1  UNL1        0.0961
     16 H          62.4123   77.5295    9.1591 H       1  UNL1        0.1437
     17 H          62.0371   76.8648   10.6839 H       1  UNL1        0.1437
     18 C          64.4390   91.2137   15.9512 C.ar    1  UNL1       -0.0044
     19 C          63.5803   90.2107   16.6629 C.ar    1  UNL1       -0.0014
     20 C          63.2671   88.8958   16.0126 C.ar    1  UNL1        0.0144
     21 C          63.8125   88.5839   14.6506 C.ar    1  UNL1        0.0516
     22 C          64.6712   89.5869   13.9389 C.ar    1  UNL1        0.0144
     23 C          64.9844   90.9018   14.5892 C.ar    1  UNL1       -0.0014
     24 C          64.7523   92.5286   16.6015 C.3     1  UNL1        0.0941
     25 C          63.6401   93.4000   17.1054 C.3     1  UNL1        0.0262
     26 C          66.9128   93.5354   15.5679 C.2     1  UNL1        0.2226
     27 O          66.2227   93.6550   14.2415 O.2     1  UNL1       -0.2751
     28 N          66.1776   92.9722   16.7479 N.am    1  UNL1       -0.3022
     29 H          66.6306   92.8938   17.6184 H       1  UNL1        0.1497
     30 C          69.4118   92.9711   15.9999 C.3     1  UNL1        0.0101
     31 C          68.3383   93.9790   15.7144 C.3     1  UNL1        0.0851
@<TRIPOS>BOND
     1    30    31    1
     2    31    26    1
     3    26    27    2
     4    26    28   am
     5    28    24    1
     6    24    25    1
     7    24    18    1
     8    18    19   ar
     9    19    20   ar
    10    20    21   ar
    11    21     1    1
    12     1     2   am
    13     2     3    2
    14     2     4   am
    15     4     5    1
    16     5     6    1
    17     6     9    1
    18     9    10   ar
    19    10    11   ar
    20    11    12   ar
    21    12    13    1
    22    12    14   ar
    23    14    15   ar
    24     6     7    1
    25    21    22   ar
    26    22    23   ar
    27    23    18   ar
    28     7     4    1
    29    15     9   ar
    30    28    29    1
    31     1     8    1
    32    13    16    1
    33    13    17    1
@<TRIPOS>MOLECULE
*****
 31 33 0 0 0
SMALL
GASTEIGER

@<TRIPOS>ATOM
      1 N          60.0799   92.4137    3.2977 N.am    1  UNL1       -0.2681
      2 C          58.9840   91.8586    4.1583 C.2     1  UNL1        0.3077
      3 O          57.5536   92.2039    3.8669 O.2     1  UNL1       -0.2522
      4 N          59.3183   90.9580    5.3104 N.am    1  UNL1       -0.2632
      5 C          58.5234   90.2356    6.3574 C.3     1  UNL1        0.1010
      6 C          59.7911   89.6845    6.9396 C.3     1  UNL1        0.0636
      7 C          60.5860   90.4069    5.8927 C.3     1  UNL1        0.1010
      8 H          61.0187   92.1871    3.4890 H       1  UNL1        0.1564
      9 C          60.1254   88.7839    8.0917 C.ar    1  UNL1        0.0001
     10 C          60.1122   87.2952    7.9083 C.ar    1  UNL1        0.0002
     11 C          60.4465   86.3946    9.0604 C.ar    1  UNL1        0.0336
     12 C          60.7941   86.9828   10.3958 C.ar    1  UNL1        0.1254
     13 N          61.1284   86.0823   11.5479 N.pl3   1  UNL1       -0.3426
     14 N          60.8073   88.4715   10.5791 N.ar    1  UNL1       -0.2299
     15 C          60.4730   89.3721    9.4271 C.ar    1  UNL1        0.0961
     16 H          61.1197   85.1052   11.4276 H       1  UNL1        0.1437
     17 H          61.3565   86.4683   12.4243 H       1  UNL1        0.1437
     18 C          59.0770   95.1154   -0.1585 C.ar    1  UNL1       -0.0044
     19 C          59.8179   95.6582    1.0274 C.ar    1  UNL1       -0.0014
     20 C          60.1522   94.7577    2.1795 C.ar    1  UNL1        0.0144
     21 C          59.7456   93.3143    2.1457 C.ar    1  UNL1        0.0516
     22 C          59.0047   92.7714    0.9598 C.ar    1  UNL1        0.0144
     23 C          58.6704   93.6719   -0.1923 C.ar    1  UNL1       -0.0014
     24 C          58.7427   96.0159   -1.3105 C.3     1  UNL1        0.0941
     25 C          59.7999   96.3774   -2.3113 C.3     1  UNL1        0.0262
     26 C          56.3415   95.8060   -2.2803 C.2     1  UNL1        0.2226
     27 O          56.7235   94.5179   -2.9473 O.2     1  UNL1       -0.2751
     28 N          57.3511   96.5549   -1.4619 N.am    1  UNL1       -0.3022
     29 H          57.1004   97.4003   -1.0240 H       1  UNL1        0.1497
     30 C          53.8459   95.8272   -1.5581 C.3     1  UNL1        0.0101
     31 C          54.9499   96.3451   -2.4316 C.3     1  UNL1        0.0851
@<TRIPOS>BOND
     1    30    31    1
     2    31    26    1
     3    26    27    2
     4    26    28   am
     5    28    24    1
     6    24    25    1
     7    24    18    1
     8    18    19   ar
     9    19    20   ar
    10    20    21   ar
    11    21     1    1
    12     1     2   am
    13     2     3    2
    14     2     4   am
    15     4     5    1
    16     5     6    1
    17     6     9    1
    18     9    10   ar
    19    10    11   ar
    20    11    12   ar
    21    12    13    1
    22    12    14   ar
    23    14    15   ar
    24     6     7    1
    25    21    22   ar
    26    22    23   ar
    27    23    18   ar
    28     7     4    1
    29    15     9   ar
    30    28    29    1
    31     1     8    1
    32    13    16    1
    33    13    17    1
@<TRIPOS>MOLECULE
*****
 31 33 0 0 0
SMALL
GASTEIGER

@<TRIPOS>ATOM
      1 N          64.8599   90.2116   12.8306 N.am    1  UNL1       -0.2681
      2 C          63.7843   89.4559   12.1082 C.2     1  UNL1        0.3077
      3 O          63.0126   90.1193   11.0061 O.2     1  UNL1       -0.2522
      4 N          63.4804   88.0369   12.4876 N.am    1  UNL1       -0.2632
      5 C          62.5113   86.9958   12.0111 C.3     1  UNL1        0.1010
      6 C          63.0506   86.0301   13.0243 C.3     1  UNL1        0.0636
      7 C          64.0197   87.0711   13.5008 C.3     1  UNL1        0.1010
      8 H          65.3664   89.7762   13.5539 H       1  UNL1        0.1564
      9 C          62.7467   84.6111   13.4037 C.ar    1  UNL1        0.0001
     10 C          62.6976   83.5465   12.3481 C.ar    1  UNL1        0.0002
     11 C          62.3937   82.1275   12.7275 C.ar    1  UNL1        0.0336
     12 C          62.1389   81.7730   14.1627 C.ar    1  UNL1        0.1254
     13 N          61.8350   80.3540   14.5421 N.pl3   1  UNL1       -0.3426
     14 N          62.1880   82.8376   15.2182 N.ar    1  UNL1       -0.2299
     15 C          62.4919   84.2566   14.8388 C.ar    1  UNL1        0.0961
     16 H          61.8028   79.6553   13.8493 H       1  UNL1        0.1437
     17 H          61.6678   80.1213   15.4840 H       1  UNL1        0.1437
     18 C          65.7717   94.4687   11.6922 C.ar    1  UNL1       -0.0044
     19 C          66.1538   93.9570   13.0495 C.ar    1  UNL1       -0.0014
     20 C          65.8499   92.5379   13.4289 C.ar    1  UNL1        0.0144
     21 C          65.1638   91.6306   12.4512 C.ar    1  UNL1        0.0516
     22 C          64.7817   92.1423   11.0940 C.ar    1  UNL1        0.0144
     23 C          65.0856   93.5613   10.7145 C.ar    1  UNL1       -0.0014
     24 C          66.0756   95.8877   11.3128 C.3     1  UNL1        0.0941
     25 C          66.5552   96.8560   12.3531 C.3     1  UNL1        0.0262
     26 C          66.8703   95.8936    8.8393 C.2     1  UNL1        0.2226
     27 O          68.0165   94.9980    9.2054 O.2     1  UNL1       -0.2751
     28 N          65.8999   96.3384    9.8930 N.am    1  UNL1       -0.3022
     29 H          65.1476   96.9263    9.6527 H       1  UNL1        0.1497
     30 C          65.3626   96.8531    6.9535 C.3     1  UNL1        0.0101
     31 C          66.6946   96.3444    7.4194 C.3     1  UNL1        0.0851
@<TRIPOS>BOND
     1    30    31    1
     2    31    26    1
     3    26    27    2
     4    26    28   am
     5    28    24    1
     6    24    25    1
     7    24    18    1
     8    18    19   ar
     9    19    20   ar
    10    20    21   ar
    11    21     1    1
    12     1     2   am
    13     2     3    2
    14     2     4   am
    15     4     5    1
    16     5     6    1
    17     6     9    1
    18     9    10   ar
    19    10    11   ar
    20    11    12   ar
    21    12    13    1
    22    12    14   ar
    23    14    15   ar
    24     6     7    1
    25    21    22   ar
    26    22    23   ar
    27    23    18   ar
    28     7     4    1
    29    15     9   ar
    30    28    29    1
    31     1     8    1
    32    13    16    1
    33    13    17    1
@<TRIPOS>MOLECULE
*****
 31 33 0 0 0
SMALL
GASTEIGER

@<TRIPOS>ATOM
      1 N          60.0867   92.4330    3.2314 N.am    1  UNL1       -0.2681
      2 C          58.9896   91.9103    4.1106 C.2     1  UNL1        0.3077
      3 O          57.5643   92.2900    3.8375 O.2     1  UNL1       -0.2522
      4 N          59.3177   91.0077    5.2629 N.am    1  UNL1       -0.2632
      5 C          58.5198   90.3111    6.3252 C.3     1  UNL1        0.1010
      6 C          59.7816   89.7313    6.8925 C.3     1  UNL1        0.0636
      7 C          60.5793   90.4279    5.8303 C.3     1  UNL1        0.1010
      8 H          61.0221   92.1838    3.4107 H       1  UNL1        0.1564
      9 C          60.1096   88.8288    8.0448 C.ar    1  UNL1        0.0001
     10 C          60.0324   87.3401    7.8771 C.ar    1  UNL1        0.0002
     11 C          60.3604   86.4376    9.0294 C.ar    1  UNL1        0.0336
     12 C          60.7657   87.0237   10.3494 C.ar    1  UNL1        0.1254
     13 N          61.0938   86.1211   11.5017 N.pl3   1  UNL1       -0.3426
     14 N          60.8430   88.5122   10.5170 N.ar    1  UNL1       -0.2299
     15 C          60.5149   89.4148    9.3647 C.ar    1  UNL1        0.0961
     16 H          61.0431   85.1441   11.3916 H       1  UNL1        0.1437
     17 H          61.3598   86.5058   12.3680 H       1  UNL1        0.1437
     18 C          59.1026   95.1407   -0.2254 C.ar    1  UNL1       -0.0044
     19 C          59.8368   95.6815    0.9655 C.ar    1  UNL1       -0.0014
     20 C          60.1649   94.7790    2.1177 C.ar    1  UNL1        0.0144
     21 C          59.7587   93.3356    2.0791 C.ar    1  UNL1        0.0516
     22 C          59.0244   92.7947    0.8882 C.ar    1  UNL1        0.0144
     23 C          58.6964   93.6973   -0.2641 C.ar    1  UNL1       -0.0014
     24 C          58.7745   96.0432   -1.3777 C.3     1  UNL1        0.0941
     25 C          57.4271   96.6973   -1.4581 C.3     1  UNL1        0.0262
     26 C          59.8972   95.3564   -3.6178 C.2     1  UNL1        0.2226
     27 O          58.9810   94.1726   -3.7140 O.2     1  UNL1       -0.2751
     28 N          59.7939   96.2917   -2.4497 N.am    1  UNL1       -0.3022
     29 H          60.3952   97.0687   -2.3866 H       1  UNL1        0.1497
     30 C          61.8384   94.5018   -5.1183 C.3     1  UNL1        0.0101
     31 C          60.9166   95.6049   -4.6897 C.3     1  UNL1        0.0851
@<TRIPOS>BOND
     1    30    31    1
     2    31    26    1
     3    26    27    2
     4    26    28   am
     5    28    24    1
     6    24    25    1
     7    24    18    1
     8    18    19   ar
     9    19    20   ar
    10    20    21   ar
    11    21     1    1
    12     1     2   am
    13     2     3    2
    14     2     4   am
    15     4     5    1
    16     5     6    1
    17     6     9    1
    18     9    10   ar
    19    10    11   ar
    20    11    12   ar
    21    12    13    1
    22    12    14   ar
    23    14    15   ar
    24     6     7    1
    25    21    22   ar
    26    22    23   ar
    27    23    18   ar
    28     7     4    1
    29    15     9   ar
    30    28    29    1
    31     1     8    1
    32    13    16    1
    33    13    17    1
@<TRIPOS>MOLECULE
*****
 31 33 0 0 0
SMALL
GASTEIGER

@<TRIPOS>ATOM
      1 N          57.8845   94.1630   -3.7268 N.am    1  UNL1       -0.2681
      2 C          57.2445   95.5024   -3.5116 C.2     1  UNL1        0.3077
      3 O          58.0556   96.6433   -2.9726 O.2     1  UNL1       -0.2522
      4 N          55.7934   95.7009   -3.8355 N.am    1  UNL1       -0.2632
      5 C          54.8371   96.8540   -3.7566 C.3     1  UNL1        0.1010
      6 C          53.7413   95.9817   -4.2935 C.3     1  UNL1        0.0636
      7 C          54.6975   94.8288   -4.3724 C.3     1  UNL1        0.1010
      8 H          57.3522   93.4142   -4.0806 H       1  UNL1        0.1564
      9 C          52.2902   96.1803   -4.6174 C.ar    1  UNL1        0.0001
     10 C          51.8497   96.2959   -6.0466 C.ar    1  UNL1        0.0002
     11 C          50.3986   96.4944   -6.3705 C.ar    1  UNL1        0.0336
     12 C          49.3880   96.5774   -5.2651 C.ar    1  UNL1        0.1254
     13 N          47.9369   96.7760   -5.5889 N.pl3   1  UNL1       -0.3426
     14 N          49.8285   96.4619   -3.8359 N.ar    1  UNL1       -0.2299
     15 C          51.2796   96.2633   -3.5121 C.ar    1  UNL1        0.0961
     16 H          47.6478   96.8518   -6.5270 H       1  UNL1        0.1437
     17 H          47.2736   96.8304   -4.8635 H       1  UNL1        0.1437
     18 C          62.2378   93.5673   -2.7553 C.ar    1  UNL1       -0.0044
     19 C          61.1847   93.1150   -1.7877 C.ar    1  UNL1       -0.0014
     20 C          59.7336   93.3136   -2.1115 C.ar    1  UNL1        0.0144
     21 C          59.3356   93.9645   -3.4030 C.ar    1  UNL1        0.0516
     22 C          60.3888   94.4168   -4.3706 C.ar    1  UNL1        0.0144
     23 C          61.8399   94.2182   -4.0467 C.ar    1  UNL1       -0.0014
     24 C          63.6889   93.3688   -2.4314 C.3     1  UNL1        0.0941
     25 C          64.5497   92.5298   -3.3287 C.3     1  UNL1        0.0262
     26 C          64.9275   95.3582   -1.3098 C.2     1  UNL1        0.2226
     27 O          64.9853   96.0669   -2.6306 O.2     1  UNL1       -0.2751
     28 N          64.2793   94.0092   -1.2102 N.am    1  UNL1       -0.3022
     29 H          64.2414   93.5441   -0.3433 H       1  UNL1        0.1497
     30 C          64.8260   95.8675    1.2359 C.3     1  UNL1        0.0101
     31 C          65.5179   95.9987   -0.0886 C.3     1  UNL1        0.0851
@<TRIPOS>BOND
     1    30    31    1
     2    31    26    1
     3    26    27    2
     4    26    28   am
     5    28    24    1
     6    24    25    1
     7    24    18    1
     8    18    19   ar
     9    19    20   ar
    10    20    21   ar
    11    21     1    1
    12     1     2   am
    13     2     3    2
    14     2     4   am
    15     4     5    1
    16     5     6    1
    17     6     9    1
    18     9    10   ar
    19    10    11   ar
    20    11    12   ar
    21    12    13    1
    22    12    14   ar
    23    14    15   ar
    24     6     7    1
    25    21    22   ar
    26    22    23   ar
    27    23    18   ar
    28     7     4    1
    29    15     9   ar
    30    28    29    1
    31     1     8    1
    32    13    16    1
    33    13    17    1
