@<TRIPOS>MOLECULE
*****
 35 38 0 0 0
SMALL
GASTEIGER

@<TRIPOS>ATOM
      1 C          63.1332   88.4136   11.8887 C.3     1  UNL1        0.0531
      2 C          63.5732   88.4615   13.3219 C.ar    1  UNL1        0.0713
      3 C          63.8486   87.2768   14.1997 C.ar    1  UNL1        0.0851
      4 C          64.2606   87.7857   15.5493 C.ar    1  UNL1        0.1359
      5 N          64.2399   89.2849   15.5055 N.ar    1  UNL1       -0.1663
      6 N          63.8151   89.7026   14.1289 N.ar    1  UNL1       -0.2491
      7 N          63.7323   85.8361   13.7984 N.am    1  UNL1       -0.2769
      8 C          63.0102   84.8662   14.6861 C.2     1  UNL1        0.2706
      9 O          62.4044   85.3370   15.9751 O.2     1  UNL1       -0.2680
     10 H          64.1300   85.5271   12.9524 H       1  UNL1        0.1553
     11 C          62.8940   83.4256   14.2848 C.ar    1  UNL1        0.1765
     12 C          62.9752   82.8908   12.8858 C.ar    1  UNL1        0.0704
     13 C          62.8075   81.4015   12.9484 C.ar    1  UNL1        0.2113
     14 O          62.6227   81.0159   14.3862 O.2     1  UNL1       -0.3501
     15 N          62.6762   82.2669   15.2121 N.ar    1  UNL1       -0.0722
     16 C          62.8221   80.4626   11.7786 C.ar    1  UNL1        0.1824
     17 C          63.0813   80.8382   10.3498 C.ar    1  UNL1        0.0440
     18 C          62.9994   79.5911    9.5204 C.ar    1  UNL1        0.0439
     19 C          62.6896   78.4445   10.4368 C.ar    1  UNL1        0.1798
     20 O          62.5800   78.9832   11.8324 O.2     1  UNL1       -0.4472
     21 C          63.6594   91.1136   13.6444 C.3     1  UNL1        0.1534
     22 C          64.6403   91.6818   12.6620 C.ar    1  UNL1        0.0060
     23 C          64.2817   91.7665   11.2079 C.ar    1  UNL1       -0.0024
     24 C          65.2625   92.3347   10.2255 C.ar    1  UNL1        0.0036
     25 C          66.6018   92.8181   10.6971 C.ar    1  UNL1        0.0714
     26 C          66.9604   92.7334   12.1512 C.ar    1  UNL1        0.0074
     27 C          65.9796   92.1652   13.1336 C.ar    1  UNL1        0.0693
     28 C          67.5827   93.3863    9.7147 C.3     1  UNL1        0.4186
     29 F          68.5635   93.9545    8.7323 F       1  UNL1       -0.1659
     30 F          67.1527   94.7740   10.0880 F       1  UNL1       -0.1659
     31 F          68.0127   91.9987    9.3414 F       1  UNL1       -0.1659
     32 C          66.3381   92.0804   14.5877 C.3     1  UNL1        0.4183
     33 F          66.6967   91.9957   16.0417 F       1  UNL1       -0.1659
     34 F          65.8336   93.4780   14.7935 F       1  UNL1       -0.1659
     35 F          66.8426   90.6829   14.3818 F       1  UNL1       -0.1659
@<TRIPOS>BOND
     1     1     2    1
     2     2     3   ar
     3     3     7    1
     4     7     8   am
     5     8     9    2
     6     8    11    1
     7    11    12   ar
     8    12    13   ar
     9    13    16    1
    10    16    17   ar
    11    17    18   ar
    12    18    19   ar
    13    19    20   ar
    14    13    14   ar
    15    14    15   ar
    16     3     4   ar
    17     4     5   ar
    18     5     6   ar
    19     6    21    1
    20    21    22    1
    21    22    23   ar
    22    23    24   ar
    23    24    25   ar
    24    25    28    1
    25    28    29    1
    26    28    30    1
    27    28    31    1
    28    25    26   ar
    29    26    27   ar
    30    27    32    1
    31    32    33    1
    32    32    34    1
    33    32    35    1
    34     6     2   ar
    35    27    22   ar
    36    15    11   ar
    37    20    16   ar
    38     7    10    1
@<TRIPOS>MOLECULE
*****
 35 38 0 0 0
SMALL
GASTEIGER

@<TRIPOS>ATOM
      1 C          63.8500   89.2128   13.1675 C.3     1  UNL1        0.0531
      2 C          63.6847   89.3697   14.6501 C.ar    1  UNL1        0.0713
      3 C          63.3358   88.2787   15.6186 C.ar    1  UNL1        0.0851
      4 C          63.2748   88.8799   16.9915 C.ar    1  UNL1        0.1359
      5 N          63.5859   90.3424   16.8715 N.ar    1  UNL1       -0.1663
      6 N          63.8393   90.6451   15.4244 N.ar    1  UNL1       -0.2491
      7 N          63.0910   86.8394   15.2746 N.am    1  UNL1       -0.2769
      8 C          64.2494   85.9243   15.0088 C.2     1  UNL1        0.2706
      9 O          65.6527   86.4486   15.0869 O.2     1  UNL1       -0.2680
     10 H          62.1700   86.4953   15.2233 H       1  UNL1        0.1553
     11 C          64.0046   84.4849   14.6648 C.ar    1  UNL1        0.1765
     12 C          63.7744   83.9342   13.2887 C.ar    1  UNL1        0.0704
     13 C          63.5745   82.4525   13.4100 C.ar    1  UNL1        0.2113
     14 O          63.6812   82.0876   14.8610 O.2     1  UNL1       -0.3501
     15 N          63.9470   83.3437   15.6365 N.ar    1  UNL1       -0.0722
     16 C          63.3137   81.5025   12.2787 C.ar    1  UNL1        0.1824
     17 C          63.5006   81.7964   10.8197 C.ar    1  UNL1        0.0440
     18 C          63.1227   80.5674   10.0472 C.ar    1  UNL1        0.0439
     19 C          62.7022   79.5139   11.0289 C.ar    1  UNL1        0.1798
     20 O          62.8203   80.0919   12.4080 O.2     1  UNL1       -0.4472
     21 C          64.1863   91.9875   14.8521 C.3     1  UNL1        0.1534
     22 C          65.0891   92.0831   13.6580 C.ar    1  UNL1        0.0060
     23 C          64.5064   92.0888   12.2758 C.ar    1  UNL1       -0.0024
     24 C          65.4091   92.1845   11.0817 C.ar    1  UNL1        0.0036
     25 C          66.8945   92.2744   11.2698 C.ar    1  UNL1        0.0714
     26 C          67.4772   92.2686   12.6520 C.ar    1  UNL1        0.0074
     27 C          66.5745   92.1730   13.8461 C.ar    1  UNL1        0.0693
     28 C          67.7973   92.3700   10.0756 C.3     1  UNL1        0.4186
     29 F          68.7001   92.4656    8.8816 F       1  UNL1       -0.1659
     30 F          68.7882   91.4704   10.7528 F       1  UNL1       -0.1659
     31 F          66.8064   93.2697    9.3985 F       1  UNL1       -0.1659
     32 C          67.1572   92.1673   15.2282 C.3     1  UNL1        0.4183
     33 F          67.7399   92.1615   16.6104 F       1  UNL1       -0.1659
     34 F          67.0458   93.6622   15.2814 F       1  UNL1       -0.1659
     35 F          67.2686   90.6724   15.1751 F       1  UNL1       -0.1659
@<TRIPOS>BOND
     1     1     2    1
     2     2     3   ar
     3     3     7    1
     4     7     8   am
     5     8     9    2
     6     8    11    1
     7    11    12   ar
     8    12    13   ar
     9    13    16    1
    10    16    17   ar
    11    17    18   ar
    12    18    19   ar
    13    19    20   ar
    14    13    14   ar
    15    14    15   ar
    16     3     4   ar
    17     4     5   ar
    18     5     6   ar
    19     6    21    1
    20    21    22    1
    21    22    23   ar
    22    23    24   ar
    23    24    25   ar
    24    25    28    1
    25    28    29    1
    26    28    30    1
    27    28    31    1
    28    25    26   ar
    29    26    27   ar
    30    27    32    1
    31    32    33    1
    32    32    34    1
    33    32    35    1
    34     6     2   ar
    35    27    22   ar
    36    15    11   ar
    37    20    16   ar
    38     7    10    1
@<TRIPOS>MOLECULE
*****
 35 38 0 0 0
SMALL
GASTEIGER

@<TRIPOS>ATOM
      1 C          63.1672   88.7667    9.5031 C.3     1  UNL1        0.0531
      2 C          61.8699   88.3792   10.1487 C.ar    1  UNL1        0.0713
      3 C          60.5066   88.8559    9.7438 C.ar    1  UNL1        0.0851
      4 C          59.5023   88.2183   10.6576 C.ar    1  UNL1        0.1359
      5 N          60.2450   87.3475   11.6272 N.ar    1  UNL1       -0.1663
      6 N          61.7083   87.4469   11.3127 N.ar    1  UNL1       -0.2491
      7 N          60.2012   89.8038    8.6221 N.am    1  UNL1       -0.2769
      8 C          59.6318   89.2844    7.3353 C.2     1  UNL1        0.2706
      9 O          59.3678   87.8170    7.1701 O.2     1  UNL1       -0.2680
     10 H          60.3744   90.7669    8.7305 H       1  UNL1        0.1553
     11 C          59.3263   90.2323    6.2136 C.ar    1  UNL1        0.1765
     12 C          60.3285   90.8521    5.2855 C.ar    1  UNL1        0.0704
     13 C          59.5866   91.7297    4.3214 C.ar    1  UNL1        0.2113
     14 O          58.1260   91.6522    4.6537 O.2     1  UNL1       -0.3501
     15 N          57.9651   90.7268    5.8232 N.ar    1  UNL1       -0.0722
     16 C          60.1981   92.5421    3.2186 C.ar    1  UNL1        0.1824
     17 C          61.6405   92.5262    2.8074 C.ar    1  UNL1        0.0440
     18 C          61.8084   93.4873    1.6680 C.ar    1  UNL1        0.0439
     19 C          60.4696   94.0972    1.3750 C.ar    1  UNL1        0.1798
     20 O          59.4744   93.5130    2.3333 O.2     1  UNL1       -0.4472
     21 C          62.8154   86.7385   12.0353 C.3     1  UNL1        0.1534
     22 C          62.7064   85.2696   12.3192 C.ar    1  UNL1        0.0060
     23 C          62.5302   84.7892   13.7292 C.ar    1  UNL1       -0.0024
     24 C          62.4212   83.3204   14.0130 C.ar    1  UNL1        0.0036
     25 C          62.4884   82.3319   12.8869 C.ar    1  UNL1        0.0714
     26 C          62.6647   82.8123   11.4768 C.ar    1  UNL1        0.0074
     27 C          62.7737   84.2811   11.1930 C.ar    1  UNL1        0.0693
     28 C          62.3794   80.8630   13.1707 C.3     1  UNL1        0.4186
     29 F          62.2705   79.3942   13.4544 F       1  UNL1       -0.1659
     30 F          62.8617   80.5592   11.7832 F       1  UNL1       -0.1659
     31 F          61.8972   81.1668   14.5581 F       1  UNL1       -0.1659
     32 C          62.9500   84.7615    9.7829 C.3     1  UNL1        0.4183
     33 F          63.1262   85.2418    8.3729 F       1  UNL1       -0.1659
     34 F          61.5074   85.1704    9.7419 F       1  UNL1       -0.1659
     35 F          64.3926   84.3525    9.8239 F       1  UNL1       -0.1659
@<TRIPOS>BOND
     1     1     2    1
     2     2     3   ar
     3     3     7    1
     4     7     8   am
     5     8     9    2
     6     8    11    1
     7    11    12   ar
     8    12    13   ar
     9    13    16    1
    10    16    17   ar
    11    17    18   ar
    12    18    19   ar
    13    19    20   ar
    14    13    14   ar
    15    14    15   ar
    16     3     4   ar
    17     4     5   ar
    18     5     6   ar
    19     6    21    1
    20    21    22    1
    21    22    23   ar
    22    23    24   ar
    23    24    25   ar
    24    25    28    1
    25    28    29    1
    26    28    30    1
    27    28    31    1
    28    25    26   ar
    29    26    27   ar
    30    27    32    1
    31    32    33    1
    32    32    34    1
    33    32    35    1
    34     6     2   ar
    35    27    22   ar
    36    15    11   ar
    37    20    16   ar
    38     7    10    1
@<TRIPOS>MOLECULE
*****
 35 38 0 0 0
SMALL
GASTEIGER

@<TRIPOS>ATOM
      1 C          62.8583   85.9204   11.9186 C.3     1  UNL1        0.0531
      2 C          63.2298   87.2734   12.4491 C.ar    1  UNL1        0.0713
      3 C          62.9160   88.5903   11.8031 C.ar    1  UNL1        0.0851
      4 C          63.4727   89.6778   12.6735 C.ar    1  UNL1        0.1359
      5 N          64.1305   89.0330   13.8574 N.ar    1  UNL1       -0.1663
      6 N          63.9804   87.5470   13.7187 N.ar    1  UNL1       -0.2491
      7 N          62.1756   88.7854   10.5133 N.am    1  UNL1       -0.2769
      8 C          60.7967   88.2189   10.3469 C.2     1  UNL1        0.2706
      9 O          60.1582   87.4573   11.4705 O.2     1  UNL1       -0.2680
     10 H          62.5947   89.2853    9.7759 H       1  UNL1        0.1553
     11 C          60.0563   88.4141    9.0571 C.ar    1  UNL1        0.1765
     12 C          59.9935   89.6831    8.2599 C.ar    1  UNL1        0.0704
     13 C          59.1471   89.4278    7.0481 C.ar    1  UNL1        0.2113
     14 O          58.6867   88.0010    7.0965 O.2     1  UNL1       -0.3501
     15 N          59.2486   87.3745    8.3382 N.ar    1  UNL1       -0.0722
     16 C          58.8187   90.4244    5.9761 C.ar    1  UNL1        0.1824
     17 C          59.8079   91.1414    5.1059 C.ar    1  UNL1        0.0440
     18 C          59.0440   92.0390    4.1781 C.ar    1  UNL1        0.0439
     19 C          57.5826   91.8768    4.4750 C.ar    1  UNL1        0.1798
     20 O          57.4434   90.8789    5.5862 O.2     1  UNL1       -0.4472
     21 C          64.4912   86.5157   14.6806 C.3     1  UNL1        0.1534
     22 C          64.0781   85.0813   14.5318 C.ar    1  UNL1        0.0060
     23 C          64.7369   84.2143   13.5002 C.ar    1  UNL1       -0.0024
     24 C          64.3238   82.7801   13.3513 C.ar    1  UNL1        0.0036
     25 C          63.2519   82.2128   14.2341 C.ar    1  UNL1        0.0714
     26 C          62.5931   83.0799   15.2657 C.ar    1  UNL1        0.0074
     27 C          63.0062   84.5141   15.4146 C.ar    1  UNL1        0.0693
     28 C          62.8388   80.7785   14.0852 C.3     1  UNL1        0.4186
     29 F          62.4257   79.3442   13.9364 F       1  UNL1       -0.1659
     30 F          64.2703   80.3893   13.8631 F       1  UNL1       -0.1659
     31 F          61.4073   81.1677   14.3073 F       1  UNL1       -0.1659
     32 C          62.3474   85.3811   16.4462 C.3     1  UNL1        0.4183
     33 F          61.6887   86.2482   17.4778 F       1  UNL1       -0.1659
     34 F          63.6664   85.5606   17.1376 F       1  UNL1       -0.1659
     35 F          61.0285   85.2017   15.7548 F       1  UNL1       -0.1659
@<TRIPOS>BOND
     1     1     2    1
     2     2     3   ar
     3     3     7    1
     4     7     8   am
     5     8     9    2
     6     8    11    1
     7    11    12   ar
     8    12    13   ar
     9    13    16    1
    10    16    17   ar
    11    17    18   ar
    12    18    19   ar
    13    19    20   ar
    14    13    14   ar
    15    14    15   ar
    16     3     4   ar
    17     4     5   ar
    18     5     6   ar
    19     6    21    1
    20    21    22    1
    21    22    23   ar
    22    23    24   ar
    23    24    25   ar
    24    25    28    1
    25    28    29    1
    26    28    30    1
    27    28    31    1
    28    25    26   ar
    29    26    27   ar
    30    27    32    1
    31    32    33    1
    32    32    34    1
    33    32    35    1
    34     6     2   ar
    35    27    22   ar
    36    15    11   ar
    37    20    16   ar
    38     7    10    1
@<TRIPOS>MOLECULE
*****
 35 38 0 0 0
SMALL
GASTEIGER

@<TRIPOS>ATOM
      1 C          63.0710   89.5778   10.2051 C.3     1  UNL1        0.0531
      2 C          61.9438   88.5882   10.1915 C.ar    1  UNL1        0.0713
      3 C          60.7459   88.6287    9.2896 C.ar    1  UNL1        0.0851
      4 C          59.8784   87.4498    9.6181 C.ar    1  UNL1        0.1359
      5 N          60.5403   86.6808   10.7229 N.ar    1  UNL1       -0.1663
      6 N          61.8167   87.3844   11.0773 N.ar    1  UNL1       -0.2491
      7 N          60.4648   89.6659    8.2431 N.am    1  UNL1       -0.2769
      8 C          59.6212   89.3200    7.0520 C.2     1  UNL1        0.2706
      9 O          59.0588   87.9369    6.9074 O.2     1  UNL1       -0.2680
     10 H          60.8339   90.5736    8.3380 H       1  UNL1        0.1553
     11 C          59.3401   90.3572    6.0055 C.ar    1  UNL1        0.1765
     12 C          60.3596   91.0306    5.1353 C.ar    1  UNL1        0.0704
     13 C          59.6397   91.9926    4.2374 C.ar    1  UNL1        0.2113
     14 O          58.1753   91.9138    4.5527 O.2     1  UNL1       -0.3501
     15 N          57.9902   90.9030    5.6454 N.ar    1  UNL1       -0.0722
     16 C          60.2730   92.8781    3.2055 C.ar    1  UNL1        0.1824
     17 C          61.5581   92.6077    2.4805 C.ar    1  UNL1        0.0440
     18 C          61.8118   93.7519    1.5443 C.ar    1  UNL1        0.0439
     19 C          60.6834   94.7295    1.6906 C.ar    1  UNL1        0.1798
     20 O          59.7325   94.1894    2.7172 O.2     1  UNL1       -0.4472
     21 C          62.7944   86.9588   12.1322 C.3     1  UNL1        0.1534
     22 C          62.8816   85.5168   12.5362 C.ar    1  UNL1        0.0060
     23 C          62.5161   84.4404   11.5575 C.ar    1  UNL1       -0.0024
     24 C          62.6032   82.9984   11.9615 C.ar    1  UNL1        0.0036
     25 C          63.0558   82.6329   13.3440 C.ar    1  UNL1        0.0714
     26 C          63.4212   83.7093   14.3227 C.ar    1  UNL1        0.0074
     27 C          63.3341   85.1513   13.9188 C.ar    1  UNL1        0.0693
     28 C          63.1429   81.1909   13.7480 C.3     1  UNL1        0.4186
     29 F          63.2301   79.7490   14.1520 F       1  UNL1       -0.1659
     30 F          64.4174   81.0499   12.9698 F       1  UNL1       -0.1659
     31 F          61.8684   81.3319   14.5263 F       1  UNL1       -0.1659
     32 C          63.6996   86.2277   14.8974 C.3     1  UNL1        0.4183
     33 F          64.0650   87.3041   15.8761 F       1  UNL1       -0.1659
     34 F          64.7767   86.7058   13.9694 F       1  UNL1       -0.1659
     35 F          62.6224   85.7496   15.8255 F       1  UNL1       -0.1659
@<TRIPOS>BOND
     1     1     2    1
     2     2     3   ar
     3     3     7    1
     4     7     8   am
     5     8     9    2
     6     8    11    1
     7    11    12   ar
     8    12    13   ar
     9    13    16    1
    10    16    17   ar
    11    17    18   ar
    12    18    19   ar
    13    19    20   ar
    14    13    14   ar
    15    14    15   ar
    16     3     4   ar
    17     4     5   ar
    18     5     6   ar
    19     6    21    1
    20    21    22    1
    21    22    23   ar
    22    23    24   ar
    23    24    25   ar
    24    25    28    1
    25    28    29    1
    26    28    30    1
    27    28    31    1
    28    25    26   ar
    29    26    27   ar
    30    27    32    1
    31    32    33    1
    32    32    34    1
    33    32    35    1
    34     6     2   ar
    35    27    22   ar
    36    15    11   ar
    37    20    16   ar
    38     7    10    1
@<TRIPOS>MOLECULE
*****
 35 38 0 0 0
SMALL
GASTEIGER

@<TRIPOS>ATOM
      1 C          62.5779   88.0664   11.6898 C.3     1  UNL1        0.0531
      2 C          63.3475   88.1608   12.9738 C.ar    1  UNL1        0.0713
      3 C          63.8721   87.0058   13.7742 C.ar    1  UNL1        0.0851
      4 C          64.5764   87.5580   14.9780 C.ar    1  UNL1        0.1359
      5 N          64.4871   89.0543   14.9215 N.ar    1  UNL1       -0.1663
      6 N          63.7276   89.4268   13.6828 N.ar    1  UNL1       -0.2491
      7 N          63.7192   85.5536   13.4312 N.am    1  UNL1       -0.2769
      8 C          63.0952   84.6115   14.4177 C.2     1  UNL1        0.2706
      9 O          62.6242   85.1218   15.7474 O.2     1  UNL1       -0.2680
     10 H          64.0283   85.2187   12.5585 H       1  UNL1        0.1553
     11 C          62.9423   83.1593   14.0747 C.ar    1  UNL1        0.1765
     12 C          63.0079   82.5670   12.6982 C.ar    1  UNL1        0.0704
     13 C          62.8031   81.0861   12.8207 C.ar    1  UNL1        0.2113
     14 O          62.6110   80.7632   14.2729 O.2     1  UNL1       -0.3501
     15 N          62.6971   82.0446   15.0479 N.ar    1  UNL1       -0.0722
     16 C          62.7923   80.1009   11.6895 C.ar    1  UNL1        0.1824
     17 C          63.0084   80.4204   10.2400 C.ar    1  UNL1        0.0440
     18 C          62.9132   79.1403    9.4640 C.ar    1  UNL1        0.0439
     19 C          62.6383   78.0296   10.4339 C.ar    1  UNL1        0.1798
     20 O          62.5636   78.6233   11.8094 O.2     1  UNL1       -0.4472
     21 C          63.4049   90.8207   13.2323 C.3     1  UNL1        0.1534
     22 C          64.3998   91.5957   12.4201 C.ar    1  UNL1        0.0060
     23 C          65.5641   92.2590   13.0942 C.ar    1  UNL1       -0.0024
     24 C          66.5590   93.0340   12.2822 C.ar    1  UNL1        0.0036
     25 C          66.3896   93.1456   10.7960 C.ar    1  UNL1        0.0714
     26 C          65.2253   92.4823   10.1219 C.ar    1  UNL1        0.0074
     27 C          64.2304   91.7073   10.9339 C.ar    1  UNL1        0.0693
     28 C          67.3846   93.9206    9.9838 C.3     1  UNL1        0.4186
     29 F          68.3795   94.6956    9.1717 F       1  UNL1       -0.1659
     30 F          68.1947   92.6738    9.7865 F       1  UNL1       -0.1659
     31 F          66.5745   95.1675   10.1811 F       1  UNL1       -0.1659
     32 C          63.0661   91.0440   10.2598 C.3     1  UNL1        0.4183
     33 F          61.9019   90.3806    9.5857 F       1  UNL1       -0.1659
     34 F          63.9050   89.8259   10.0097 F       1  UNL1       -0.1659
     35 F          62.2273   92.2621   10.5100 F       1  UNL1       -0.1659
@<TRIPOS>BOND
     1     1     2    1
     2     2     3   ar
     3     3     7    1
     4     7     8   am
     5     8     9    2
     6     8    11    1
     7    11    12   ar
     8    12    13   ar
     9    13    16    1
    10    16    17   ar
    11    17    18   ar
    12    18    19   ar
    13    19    20   ar
    14    13    14   ar
    15    14    15   ar
    16     3     4   ar
    17     4     5   ar
    18     5     6   ar
    19     6    21    1
    20    21    22    1
    21    22    23   ar
    22    23    24   ar
    23    24    25   ar
    24    25    28    1
    25    28    29    1
    26    28    30    1
    27    28    31    1
    28    25    26   ar
    29    26    27   ar
    30    27    32    1
    31    32    33    1
    32    32    34    1
    33    32    35    1
    34     6     2   ar
    35    27    22   ar
    36    15    11   ar
    37    20    16   ar
    38     7    10    1
@<TRIPOS>MOLECULE
*****
 35 38 0 0 0
SMALL
GASTEIGER

@<TRIPOS>ATOM
      1 C          63.1155   89.9936    9.9983 C.3     1  UNL1        0.0531
      2 C          61.9270   89.1317   10.3062 C.ar    1  UNL1        0.0713
      3 C          60.6093   89.1586    9.5901 C.ar    1  UNL1        0.0851
      4 C          59.7155   88.1352   10.2256 C.ar    1  UNL1        0.1359
      5 N          60.4809   87.4758   11.3344 N.ar    1  UNL1       -0.1663
      6 N          61.8477   88.0917   11.3842 N.ar    1  UNL1       -0.2491
      7 N          60.2486   90.0520    8.4405 N.am    1  UNL1       -0.2769
      8 C          59.6606   89.4661    7.1910 C.2     1  UNL1        0.2706
      9 O          59.4333   87.9867    7.0913 O.2     1  UNL1       -0.2680
     10 H          60.3978   91.0230    8.5059 H       1  UNL1        0.1553
     11 C          59.2999   90.3595    6.0414 C.ar    1  UNL1        0.1765
     12 C          60.2658   91.0564    5.1296 C.ar    1  UNL1        0.0704
     13 C          59.4729   91.8405    4.1264 C.ar    1  UNL1        0.2113
     14 O          58.0170   91.6282    4.4182 O.2     1  UNL1       -0.3501
     15 N          57.9101   90.7129    5.6017 N.ar    1  UNL1       -0.0722
     16 C          60.0369   92.6881    3.0248 C.ar    1  UNL1        0.1824
     17 C          61.4384   92.6259    2.4939 C.ar    1  UNL1        0.0440
     18 C          61.5661   93.6460    1.4017 C.ar    1  UNL1        0.0439
     19 C          60.2435   94.3388    1.2575 C.ar    1  UNL1        0.1798
     20 O          59.2984   93.7467    2.2606 O.2     1  UNL1       -0.4472
     21 C          62.9428   87.7309   12.3435 C.3     1  UNL1        0.1534
     22 C          63.6450   88.8060   13.1190 C.ar    1  UNL1        0.0060
     23 C          63.7732   90.1847   12.5422 C.ar    1  UNL1       -0.0024
     24 C          64.4752   91.2598   13.3176 C.ar    1  UNL1        0.0036
     25 C          65.0491   90.9561   14.6698 C.ar    1  UNL1        0.0714
     26 C          64.9209   89.5774   15.2466 C.ar    1  UNL1        0.0074
     27 C          64.2189   88.5023   14.4712 C.ar    1  UNL1        0.0693
     28 C          65.7513   92.0312   15.4453 C.3     1  UNL1        0.4186
     29 F          66.4533   93.1062   16.2207 F       1  UNL1       -0.1659
     30 F          64.5935   92.1012   16.3964 F       1  UNL1       -0.1659
     31 F          66.9090   91.9612   14.4941 F       1  UNL1       -0.1659
     32 C          64.0907   87.1236   15.0479 C.3     1  UNL1        0.4183
     33 F          63.9625   85.7449   15.6247 F       1  UNL1       -0.1659
     34 F          64.7222   86.5490   13.8146 F       1  UNL1       -0.1659
     35 F          63.4592   87.6982   16.2812 F       1  UNL1       -0.1659
@<TRIPOS>BOND
     1     1     2    1
     2     2     3   ar
     3     3     7    1
     4     7     8   am
     5     8     9    2
     6     8    11    1
     7    11    12   ar
     8    12    13   ar
     9    13    16    1
    10    16    17   ar
    11    17    18   ar
    12    18    19   ar
    13    19    20   ar
    14    13    14   ar
    15    14    15   ar
    16     3     4   ar
    17     4     5   ar
    18     5     6   ar
    19     6    21    1
    20    21    22    1
    21    22    23   ar
    22    23    24   ar
    23    24    25   ar
    24    25    28    1
    25    28    29    1
    26    28    30    1
    27    28    31    1
    28    25    26   ar
    29    26    27   ar
    30    27    32    1
    31    32    33    1
    32    32    34    1
    33    32    35    1
    34     6     2   ar
    35    27    22   ar
    36    15    11   ar
    37    20    16   ar
    38     7    10    1
@<TRIPOS>MOLECULE
*****
 35 38 0 0 0
SMALL
GASTEIGER

@<TRIPOS>ATOM
      1 C          63.5952   88.6188   13.0920 C.3     1  UNL1        0.0531
      2 C          63.4855   88.7525   14.5820 C.ar    1  UNL1        0.0713
      3 C          63.2093   87.6396   15.5491 C.ar    1  UNL1        0.0851
      4 C          63.1859   88.2218   16.9313 C.ar    1  UNL1        0.1359
      5 N          63.4476   89.6945   16.8185 N.ar    1  UNL1       -0.1663
      6 N          63.6328   90.0225   15.3665 N.ar    1  UNL1       -0.2491
      7 N          62.9943   86.1977   15.1960 N.am    1  UNL1       -0.2769
      8 C          64.1546   85.3496   14.7665 C.2     1  UNL1        0.2706
      9 O          65.5300   85.9435   14.6901 O.2     1  UNL1       -0.2680
     10 H          62.0916   85.8080   15.2461 H       1  UNL1        0.1553
     11 C          63.9396   83.9077   14.4134 C.ar    1  UNL1        0.1765
     12 C          63.6527   83.3689   13.0433 C.ar    1  UNL1        0.0704
     13 C          63.5095   81.8797   13.1515 C.ar    1  UNL1        0.2113
     14 O          63.7079   81.4982   14.5885 O.2     1  UNL1       -0.3501
     15 N          63.9737   82.7516   15.3684 N.ar    1  UNL1       -0.0722
     16 C          63.2189   80.9374   12.0211 C.ar    1  UNL1        0.1824
     17 C          63.3410   81.2500   10.5591 C.ar    1  UNL1        0.0440
     18 C          62.9528   80.0229    9.7888 C.ar    1  UNL1        0.0439
     19 C          62.5907   78.9518   10.7746 C.ar    1  UNL1        0.1798
     20 O          62.7553   79.5170   12.1543 O.2     1  UNL1       -0.4472
     21 C          63.9156   91.3817   14.7988 C.3     1  UNL1        0.1534
     22 C          65.2734   91.9969   14.9663 C.ar    1  UNL1        0.0060
     23 C          65.8630   92.1510   16.3369 C.ar    1  UNL1       -0.0024
     24 C          67.2207   92.7661   16.5045 C.ar    1  UNL1        0.0036
     25 C          67.9889   93.2271   15.3014 C.ar    1  UNL1        0.0714
     26 C          67.3993   93.0730   13.9308 C.ar    1  UNL1        0.0074
     27 C          66.0415   92.4579   13.7632 C.ar    1  UNL1        0.0693
     28 C          69.3467   93.8423   15.4690 C.3     1  UNL1        0.4186
     29 F          70.7045   94.4573   15.6364 F       1  UNL1       -0.1659
     30 F          69.9319   92.7958   14.5677 F       1  UNL1       -0.1659
     31 F          68.7615   94.8887   16.3702 F       1  UNL1       -0.1659
     32 C          65.4519   92.3037   12.3926 C.3     1  UNL1        0.4183
     33 F          64.8623   92.1496   11.0220 F       1  UNL1       -0.1659
     34 F          65.5147   93.7898   12.1985 F       1  UNL1       -0.1659
     35 F          65.3892   90.8177   12.5867 F       1  UNL1       -0.1659
@<TRIPOS>BOND
     1     1     2    1
     2     2     3   ar
     3     3     7    1
     4     7     8   am
     5     8     9    2
     6     8    11    1
     7    11    12   ar
     8    12    13   ar
     9    13    16    1
    10    16    17   ar
    11    17    18   ar
    12    18    19   ar
    13    19    20   ar
    14    13    14   ar
    15    14    15   ar
    16     3     4   ar
    17     4     5   ar
    18     5     6   ar
    19     6    21    1
    20    21    22    1
    21    22    23   ar
    22    23    24   ar
    23    24    25   ar
    24    25    28    1
    25    28    29    1
    26    28    30    1
    27    28    31    1
    28    25    26   ar
    29    26    27   ar
    30    27    32    1
    31    32    33    1
    32    32    34    1
    33    32    35    1
    34     6     2   ar
    35    27    22   ar
    36    15    11   ar
    37    20    16   ar
    38     7    10    1
@<TRIPOS>MOLECULE
*****
 35 38 0 0 0
SMALL
GASTEIGER

@<TRIPOS>ATOM
      1 C          60.0577   93.9089    0.0265 C.3     1  UNL1        0.0531
      2 C          61.4695   94.0607    0.5099 C.ar    1  UNL1        0.0713
      3 C          62.0743   93.3701    1.6962 C.ar    1  UNL1        0.0851
      4 C          63.5030   93.8124    1.8113 C.ar    1  UNL1        0.1359
      5 N          63.7812   94.7762    0.6961 N.ar    1  UNL1       -0.1663
      6 N          62.5245   94.9297   -0.1082 N.ar    1  UNL1       -0.2491
      7 N          61.3734   92.4066    2.6074 N.am    1  UNL1       -0.2769
      8 C          60.2599   92.8849    3.4913 C.2     1  UNL1        0.2706
      9 O          59.8472   94.3268    3.4639 O.2     1  UNL1       -0.2680
     10 H          61.6443   91.4603    2.6254 H       1  UNL1        0.1553
     11 C          59.5590   91.9214    4.4025 C.ar    1  UNL1        0.1765
     12 C          60.2194   90.9169    5.2996 C.ar    1  UNL1        0.0704
     13 C          59.1432   90.1679    6.0282 C.ar    1  UNL1        0.2113
     14 O          57.8177   90.7094    5.5813 O.2     1  UNL1       -0.3501
     15 N          58.0747   91.7932    4.5766 N.ar    1  UNL1       -0.0722
     16 C          59.3554   89.0700    7.0281 C.ar    1  UNL1        0.1824
     17 C          60.0607   89.2014    8.3454 C.ar    1  UNL1        0.0440
     18 C          60.0406   87.8606    9.0176 C.ar    1  UNL1        0.0439
     19 C          59.3230   86.9005    8.1158 C.ar    1  UNL1        0.1798
     20 O          58.8995   87.6480    6.8862 O.2     1  UNL1       -0.4472
     21 C          62.3528   95.7994   -1.3182 C.3     1  UNL1        0.1534
     22 C          63.1820   95.5520   -2.5435 C.ar    1  UNL1        0.0060
     23 C          64.5096   96.2321   -2.7006 C.ar    1  UNL1       -0.0024
     24 C          65.3388   95.9847   -3.9258 C.ar    1  UNL1        0.0036
     25 C          64.8402   95.0572   -4.9940 C.ar    1  UNL1        0.0714
     26 C          63.5126   94.3770   -4.8369 C.ar    1  UNL1        0.0074
     27 C          62.6834   94.6244   -3.6117 C.ar    1  UNL1        0.0693
     28 C          65.6694   94.8097   -6.2193 C.3     1  UNL1        0.4186
     29 F          66.4985   94.5622   -7.4446 F       1  UNL1       -0.1659
     30 F          64.8533   93.5889   -6.5250 F       1  UNL1       -0.1659
     31 F          66.4855   96.0305   -5.9136 F       1  UNL1       -0.1659
     32 C          61.3558   93.9442   -3.4546 C.3     1  UNL1        0.4183
     33 F          60.0281   93.2641   -3.2976 F       1  UNL1       -0.1659
     34 F          61.9985   92.8847   -2.6095 F       1  UNL1       -0.1659
     35 F          60.7130   95.0038   -4.2998 F       1  UNL1       -0.1659
@<TRIPOS>BOND
     1     1     2    1
     2     2     3   ar
     3     3     7    1
     4     7     8   am
     5     8     9    2
     6     8    11    1
     7    11    12   ar
     8    12    13   ar
     9    13    16    1
    10    16    17   ar
    11    17    18   ar
    12    18    19   ar
    13    19    20   ar
    14    13    14   ar
    15    14    15   ar
    16     3     4   ar
    17     4     5   ar
    18     5     6   ar
    19     6    21    1
    20    21    22    1
    21    22    23   ar
    22    23    24   ar
    23    24    25   ar
    24    25    28    1
    25    28    29    1
    26    28    30    1
    27    28    31    1
    28    25    26   ar
    29    26    27   ar
    30    27    32    1
    31    32    33    1
    32    32    34    1
    33    32    35    1
    34     6     2   ar
    35    27    22   ar
    36    15    11   ar
    37    20    16   ar
    38     7    10    1
