@<TRIPOS>MOLECULE
*****
 29 33 0 0 0
SMALL
GASTEIGER

@<TRIPOS>ATOM
      1 O          63.1597   89.4907   14.7616 O.3     1  UNL1       -0.4630
      2 C          66.7355   93.0147   13.4218 C.3     1  UNL1        0.0308
      3 C          65.5595   92.1558   13.0622 C.ar    1  UNL1       -0.0231
      4 C          64.9475   91.2527   14.0918 C.ar    1  UNL1        0.0324
      5 C          63.7716   90.3938   13.7320 C.ar    1  UNL1        0.1402
      6 C          63.2075   90.4379   12.3429 C.ar    1  UNL1        0.0479
      7 C          63.8194   91.3411   11.3133 C.ar    1  UNL1       -0.0171
      8 C          64.9954   92.2000   11.6730 C.ar    1  UNL1       -0.0292
      9 C          65.6073   93.1031   10.6434 C.3     1  UNL1        0.0304
     10 C          63.0530   91.1727   10.0349 C.3     1  UNL1        0.0606
     11 C          61.9675   90.1656   10.2744 C.ar    1  UNL1        0.0308
     12 S          60.8230   89.4392    9.6322 S.2     1  UNL1       -0.0685
     13 C          60.2111   88.5361   10.6618 C.ar    1  UNL1        0.1342
     14 N          60.9774   88.7044   11.9402 N.ar    1  UNL1       -0.2365
     15 C          62.0630   89.7115   11.7008 C.ar    1  UNL1        0.0868
     16 C          63.9620   88.3648   15.3436 C.3     1  UNL1        0.3201
     17 P          63.6511   86.9475   14.9636 P.3     1  UNL1        0.3872
     18 O          64.2183   87.4462   13.6676 O.2     1  UNL1       -0.2539
     19 O          63.1918   86.9410   16.3916 O.3     1  UNL1       -0.2916
     20 C          62.6186   85.6904   16.9893 C.3     1  UNL1        0.1543
     21 C          62.5047   84.4462   16.1592 C.3     1  UNL1        0.0672
     22 C          62.9639   84.4527   14.7313 C.3     1  UNL1        0.1489
     23 O          63.5371   85.7034   14.1334 O.3     1  UNL1       -0.2896
     24 C          62.8500   83.2086   13.9011 C.ar    1  UNL1        0.0082
     25 C          63.4803   83.1542   12.5410 C.ar    1  UNL1        0.0188
     26 C          63.3664   81.9101   11.7108 C.ar    1  UNL1        0.0986
     27 N          62.6223   80.7204   12.2405 N.ar    1  UNL1       -0.2423
     28 C          61.9919   80.7748   13.6007 C.ar    1  UNL1        0.0986
     29 C          62.1059   82.0189   14.4308 C.ar    1  UNL1        0.0188
@<TRIPOS>BOND
     1     2     3    1
     2     3     4   ar
     3     4     5   ar
     4     5     1    1
     5     1    16    1
     6    17    16    1
     7    17    18    2
     8    17    19    1
     9    19    20    1
    10    20    21    1
    11    21    22    1
    12    22    24    1
    13    24    25   ar
    14    25    26   ar
    15    26    27   ar
    16    27    28   ar
    17    28    29   ar
    18    22    23    1
    19     5     6   ar
    20     6     7   ar
    21     7     8   ar
    22     8     9    1
    23     7    10    1
    24    10    11    1
    25    11    12   ar
    26    12    13   ar
    27    13    14   ar
    28    14    15   ar
    29     8     3   ar
    30    15    11   ar
    31    23    17    1
    32    15     6    1
    33    29    24   ar
@<TRIPOS>MOLECULE
*****
 29 33 0 0 0
SMALL
GASTEIGER

@<TRIPOS>ATOM
      1 O          62.4834   85.1709   14.9253 O.3     1  UNL1       -0.4630
      2 C          63.1310   80.1637   13.6970 C.3     1  UNL1        0.0308
      3 C          62.9544   81.5923   13.2754 C.ar    1  UNL1       -0.0231
      4 C          62.8072   82.6673   14.3112 C.ar    1  UNL1        0.0324
      5 C          62.6306   84.0960   13.8895 C.ar    1  UNL1        0.1402
      6 C          62.6014   84.4497   12.4322 C.ar    1  UNL1        0.0479
      7 C          62.7486   83.3747   11.3963 C.ar    1  UNL1       -0.0171
      8 C          62.9252   81.9461   11.8179 C.ar    1  UNL1       -0.0292
      9 C          63.0724   80.8712   10.7821 C.3     1  UNL1        0.0304
     10 C          62.6811   84.0213   10.0445 C.3     1  UNL1        0.0606
     11 C          62.4921   85.4958   10.2448 C.ar    1  UNL1        0.0308
     12 S          62.3336   86.8067    9.5331 S.2     1  UNL1       -0.0685
     13 C          62.1864   87.8816   10.5689 C.ar    1  UNL1        0.1342
     14 N          62.2539   87.2351   11.9208 N.ar    1  UNL1       -0.2365
     15 C          62.4429   85.7605   11.7205 C.ar    1  UNL1        0.0868
     16 C          63.7025   85.7997   15.5322 C.3     1  UNL1        0.3201
     17 P          64.0459   87.2258   15.2184 P.3     1  UNL1        0.3872
     18 O          64.8350   86.5270   14.1511 O.2     1  UNL1       -0.2539
     19 O          63.1376   87.4293   16.3947 O.3     1  UNL1       -0.2916
     20 C          62.8467   88.8162   16.8864 C.3     1  UNL1        0.1543
     21 C          63.4641   89.9996   16.2020 C.3     1  UNL1        0.0672
     22 C          64.3725   89.7961   15.0258 C.3     1  UNL1        0.1489
     23 O          64.6634   88.4091   14.5340 O.3     1  UNL1       -0.2896
     24 C          64.9900   90.9794   14.3414 C.ar    1  UNL1        0.0082
     25 C          66.0093   91.8134   15.0594 C.ar    1  UNL1        0.0188
     26 C          66.6268   92.9968   14.3749 C.ar    1  UNL1        0.0986
     27 N          66.2250   93.3461   12.9726 N.ar    1  UNL1       -0.2423
     28 C          65.2057   92.5120   12.2547 C.ar    1  UNL1        0.0986
     29 C          64.5882   91.3287   12.9391 C.ar    1  UNL1        0.0188
@<TRIPOS>BOND
     1     2     3    1
     2     3     4   ar
     3     4     5   ar
     4     5     1    1
     5     1    16    1
     6    17    16    1
     7    17    18    2
     8    17    19    1
     9    19    20    1
    10    20    21    1
    11    21    22    1
    12    22    24    1
    13    24    25   ar
    14    25    26   ar
    15    26    27   ar
    16    27    28   ar
    17    28    29   ar
    18    22    23    1
    19     5     6   ar
    20     6     7   ar
    21     7     8   ar
    22     8     9    1
    23     7    10    1
    24    10    11    1
    25    11    12   ar
    26    12    13   ar
    27    13    14   ar
    28    14    15   ar
    29     8     3   ar
    30    15    11   ar
    31    23    17    1
    32    15     6    1
    33    29    24   ar
@<TRIPOS>MOLECULE
*****
 29 33 0 0 0
SMALL
GASTEIGER

@<TRIPOS>ATOM
      1 O          61.4668   88.9947   12.0725 O.3     1  UNL1       -0.4630
      2 C          59.3880   88.1928    7.3783 C.3     1  UNL1        0.0308
      3 C          60.1917   87.6992    8.5447 C.ar    1  UNL1       -0.0231
      4 C          60.4274   88.5938    9.7255 C.ar    1  UNL1        0.0324
      5 C          61.2311   88.1001   10.8918 C.ar    1  UNL1        0.1402
      6 C          61.7990   86.7119   10.8775 C.ar    1  UNL1        0.0479
      7 C          61.5633   85.8173    9.6966 C.ar    1  UNL1       -0.0171
      8 C          60.7596   86.3109    8.5303 C.ar    1  UNL1       -0.0292
      9 C          60.5239   85.4163    7.3496 C.3     1  UNL1        0.0304
     10 C          62.2436   84.5075    9.9644 C.3     1  UNL1        0.0606
     11 C          62.8998   84.5926   11.3106 C.ar    1  UNL1        0.0308
     12 S          63.7258   83.8357   12.3080 S.2     1  UNL1       -0.0685
     13 C          63.9615   84.7303   13.4887 C.ar    1  UNL1        0.1342
     14 N          63.2812   86.0401   13.2210 N.ar    1  UNL1       -0.2365
     15 C          62.6250   85.9550   11.8748 C.ar    1  UNL1        0.0868
     16 C          62.0454   90.3641   11.8723 C.3     1  UNL1        0.3201
     17 P          63.2784   90.7742   12.6217 P.3     1  UNL1        0.3872
     18 O          63.5401   91.4420   11.3042 O.2     1  UNL1       -0.2539
     19 O          62.5886   89.9640   13.6789 O.3     1  UNL1       -0.2916
     20 C          63.2226   89.7959   15.0278 C.3     1  UNL1        0.1543
     21 C          64.5465   90.4380   15.3196 C.3     1  UNL1        0.0672
     22 C          65.2363   91.2481   14.2624 C.3     1  UNL1        0.1489
     23 O          64.6023   91.4163   12.9134 O.3     1  UNL1       -0.2896
     24 C          66.5602   91.8902   14.5541 C.ar    1  UNL1        0.0082
     25 C          66.7334   92.7241   15.7889 C.ar    1  UNL1        0.0188
     26 C          68.0573   93.3662   16.0807 C.ar    1  UNL1        0.0986
     27 N          69.2079   93.1745   15.1377 N.ar    1  UNL1       -0.2423
     28 C          69.0346   92.3406   13.9029 C.ar    1  UNL1        0.0986
     29 C          67.7108   91.6985   13.6112 C.ar    1  UNL1        0.0188
@<TRIPOS>BOND
     1     2     3    1
     2     3     4   ar
     3     4     5   ar
     4     5     1    1
     5     1    16    1
     6    17    16    1
     7    17    18    2
     8    17    19    1
     9    19    20    1
    10    20    21    1
    11    21    22    1
    12    22    24    1
    13    24    25   ar
    14    25    26   ar
    15    26    27   ar
    16    27    28   ar
    17    28    29   ar
    18    22    23    1
    19     5     6   ar
    20     6     7   ar
    21     7     8   ar
    22     8     9    1
    23     7    10    1
    24    10    11    1
    25    11    12   ar
    26    12    13   ar
    27    13    14   ar
    28    14    15   ar
    29     8     3   ar
    30    15    11   ar
    31    23    17    1
    32    15     6    1
    33    29    24   ar
@<TRIPOS>MOLECULE
*****
 29 33 0 0 0
SMALL
GASTEIGER

@<TRIPOS>ATOM
      1 O          61.8241   88.8367   12.2505 O.3     1  UNL1       -0.4630
      2 C          59.5842   88.2807    7.5950 C.3     1  UNL1        0.0308
      3 C          60.3928   87.7130    8.7236 C.ar    1  UNL1       -0.0231
      4 C          60.7042   88.5588    9.9228 C.ar    1  UNL1        0.0324
      5 C          61.5127   87.9910   11.0514 C.ar    1  UNL1        0.1402
      6 C          62.0099   86.5776   10.9811 C.ar    1  UNL1        0.0479
      7 C          61.6985   85.7318    9.7820 C.ar    1  UNL1       -0.0171
      8 C          60.8899   86.2995    8.6533 C.ar    1  UNL1       -0.0292
      9 C          60.5786   85.4537    7.4543 C.3     1  UNL1        0.0304
     10 C          62.3192   84.3826    9.9927 C.3     1  UNL1        0.0606
     11 C          63.0143   84.3945   11.3219 C.ar    1  UNL1        0.0308
     12 S          63.8274   83.5680   12.2735 S.2     1  UNL1       -0.0685
     13 C          64.1388   84.4138   13.4725 C.ar    1  UNL1        0.1342
     14 N          63.5181   85.7630   13.2620 N.ar    1  UNL1       -0.2365
     15 C          62.8231   85.7511   11.9327 C.ar    1  UNL1        0.0868
     16 C          61.8361   90.3319   12.1309 C.3     1  UNL1        0.3201
     17 P          63.1078   91.0462   11.7806 P.3     1  UNL1        0.3872
     18 O          62.3922   91.1278   10.4648 O.2     1  UNL1       -0.2539
     19 O          63.3818   90.7165   13.2180 O.3     1  UNL1       -0.2916
     20 C          64.6789   91.1293   13.8481 C.3     1  UNL1        0.1543
     21 C          65.7021   91.8719   13.0408 C.3     1  UNL1        0.0672
     22 C          65.4281   92.2016   11.6033 C.3     1  UNL1        0.1489
     23 O          64.1309   91.7887   10.9732 O.3     1  UNL1       -0.2896
     24 C          66.4511   92.9442   10.7960 C.ar    1  UNL1        0.0082
     25 C          66.3057   94.4210   10.5765 C.ar    1  UNL1        0.0188
     26 C          67.3288   95.1635    9.7692 C.ar    1  UNL1        0.0986
     27 N          68.4973   94.4295    9.1812 N.ar    1  UNL1       -0.2423
     28 C          68.6427   92.9527    9.4006 C.ar    1  UNL1        0.0986
     29 C          67.6196   92.2102   10.2080 C.ar    1  UNL1        0.0188
@<TRIPOS>BOND
     1     2     3    1
     2     3     4   ar
     3     4     5   ar
     4     5     1    1
     5     1    16    1
     6    17    16    1
     7    17    18    2
     8    17    19    1
     9    19    20    1
    10    20    21    1
    11    21    22    1
    12    22    24    1
    13    24    25   ar
    14    25    26   ar
    15    26    27   ar
    16    27    28   ar
    17    28    29   ar
    18    22    23    1
    19     5     6   ar
    20     6     7   ar
    21     7     8   ar
    22     8     9    1
    23     7    10    1
    24    10    11    1
    25    11    12   ar
    26    12    13   ar
    27    13    14   ar
    28    14    15   ar
    29     8     3   ar
    30    15    11   ar
    31    23    17    1
    32    15     6    1
    33    29    24   ar
@<TRIPOS>MOLECULE
*****
 29 33 0 0 0
SMALL
GASTEIGER

@<TRIPOS>ATOM
      1 O          62.0719   88.3432   12.1705 O.3     1  UNL1       -0.4630
      2 C          62.2328   85.4689    7.8447 C.3     1  UNL1        0.0308
      3 C          62.5103   85.6271    9.3103 C.ar    1  UNL1       -0.0231
      4 C          62.1524   86.9061   10.0076 C.ar    1  UNL1        0.0324
      5 C          62.4299   87.0642   11.4732 C.ar    1  UNL1        0.1402
      6 C          63.0652   85.9436   12.2415 C.ar    1  UNL1        0.0479
      7 C          63.4231   84.6646   11.5442 C.ar    1  UNL1       -0.0171
      8 C          63.1457   84.5064   10.0786 C.ar    1  UNL1       -0.0292
      9 C          63.5036   83.2274    9.3813 C.3     1  UNL1        0.0304
     10 C          64.0350   83.7409   12.5554 C.3     1  UNL1        0.0606
     11 C          64.0552   84.4490   13.8776 C.ar    1  UNL1        0.0308
     12 S          64.4458   84.3157   15.3197 S.2     1  UNL1       -0.0685
     13 C          64.0879   85.5946   16.0169 C.ar    1  UNL1        0.1342
     14 N          63.4760   86.5184   15.0058 N.ar    1  UNL1       -0.2365
     15 C          63.4558   85.8103   13.6836 C.ar    1  UNL1        0.0868
     16 C          61.9041   89.6069   11.3799 C.3     1  UNL1        0.3201
     17 P          63.0566   90.5546   11.2271 P.3     1  UNL1        0.3872
     18 O          62.6169   90.4466    9.7970 O.2     1  UNL1       -0.2539
     19 O          63.0962   90.3335   12.7102 O.3     1  UNL1       -0.2916
     20 C          64.1355   91.0226   13.5437 C.3     1  UNL1        0.1543
     21 C          65.1353   91.9329   12.8943 C.3     1  UNL1        0.0672
     22 C          65.0958   92.1540   11.4112 C.3     1  UNL1        0.1489
     23 O          64.0564   91.4648   10.5775 O.3     1  UNL1       -0.2896
     24 C          66.0956   93.0642   10.7616 C.ar    1  UNL1        0.0082
     25 C          65.9052   94.5510   10.8201 C.ar    1  UNL1        0.0188
     26 C          66.9050   95.4612   10.1706 C.ar    1  UNL1        0.0986
     27 N          68.0951   94.8849    9.4626 N.ar    1  UNL1       -0.2423
     28 C          68.2855   93.3981    9.4041 C.ar    1  UNL1        0.0986
     29 C          67.2857   92.4879   10.0536 C.ar    1  UNL1        0.0188
@<TRIPOS>BOND
     1     2     3    1
     2     3     4   ar
     3     4     5   ar
     4     5     1    1
     5     1    16    1
     6    17    16    1
     7    17    18    2
     8    17    19    1
     9    19    20    1
    10    20    21    1
    11    21    22    1
    12    22    24    1
    13    24    25   ar
    14    25    26   ar
    15    26    27   ar
    16    27    28   ar
    17    28    29   ar
    18    22    23    1
    19     5     6   ar
    20     6     7   ar
    21     7     8   ar
    22     8     9    1
    23     7    10    1
    24    10    11    1
    25    11    12   ar
    26    12    13   ar
    27    13    14   ar
    28    14    15   ar
    29     8     3   ar
    30    15    11   ar
    31    23    17    1
    32    15     6    1
    33    29    24   ar
@<TRIPOS>MOLECULE
*****
 29 33 0 0 0
SMALL
GASTEIGER

@<TRIPOS>ATOM
      1 O          62.8859   89.5206   12.7311 O.3     1  UNL1       -0.4630
      2 C          64.8813   85.2454   14.9084 C.3     1  UNL1        0.0308
      3 C          64.0682   85.8944   13.8279 C.ar    1  UNL1       -0.0231
      4 C          63.8836   87.3831   13.8197 C.ar    1  UNL1        0.0324
      5 C          63.0704   88.0320   12.7392 C.ar    1  UNL1        0.1402
      6 C          62.4418   87.1925   11.6669 C.ar    1  UNL1        0.0479
      7 C          62.6264   85.7039   11.6750 C.ar    1  UNL1       -0.0171
      8 C          63.4395   85.0549   12.7555 C.ar    1  UNL1       -0.0292
      9 C          63.6240   83.5663   12.7636 C.3     1  UNL1        0.0304
     10 C          61.8917   85.1393   10.4954 C.3     1  UNL1        0.0606
     11 C          61.2531   86.2790    9.7582 C.ar    1  UNL1        0.0308
     12 S          60.4043   86.6343    8.5736 S.2     1  UNL1       -0.0685
     13 C          60.2198   88.1229    8.5654 C.ar    1  UNL1        0.1342
     14 N          60.9545   88.6875    9.7451 N.ar    1  UNL1       -0.2365
     15 C          61.5931   87.5479   10.4822 C.ar    1  UNL1        0.0868
     16 C          63.8133   90.3957   13.5211 C.3     1  UNL1        0.3201
     17 P          64.5540   91.5094   12.8421 P.3     1  UNL1        0.3872
     18 O          63.7344   91.0028   11.6925 O.2     1  UNL1       -0.2539
     19 O          65.1165   91.6292   14.2275 O.3     1  UNL1       -0.2916
     20 C          66.1349   92.6867   14.5346 C.3     1  UNL1        0.1543
     21 C          66.5909   93.6245   13.4564 C.3     1  UNL1        0.0672
     22 C          66.0285   93.5047   12.0710 C.3     1  UNL1        0.1489
     23 O          65.0100   92.4471   11.7638 O.3     1  UNL1       -0.2896
     24 C          66.4844   94.4424   10.9927 C.ar    1  UNL1        0.0082
     25 C          66.2503   95.9174   11.1331 C.ar    1  UNL1        0.0188
     26 C          66.7063   96.8552   10.0548 C.ar    1  UNL1        0.0986
     27 N          67.3963   96.3181    8.8361 N.ar    1  UNL1       -0.2423
     28 C          67.6304   94.8431    8.6957 C.ar    1  UNL1        0.0986
     29 C          67.1745   93.9053    9.7740 C.ar    1  UNL1        0.0188
@<TRIPOS>BOND
     1     2     3    1
     2     3     4   ar
     3     4     5   ar
     4     5     1    1
     5     1    16    1
     6    17    16    1
     7    17    18    2
     8    17    19    1
     9    19    20    1
    10    20    21    1
    11    21    22    1
    12    22    24    1
    13    24    25   ar
    14    25    26   ar
    15    26    27   ar
    16    27    28   ar
    17    28    29   ar
    18    22    23    1
    19     5     6   ar
    20     6     7   ar
    21     7     8   ar
    22     8     9    1
    23     7    10    1
    24    10    11    1
    25    11    12   ar
    26    12    13   ar
    27    13    14   ar
    28    14    15   ar
    29     8     3   ar
    30    15    11   ar
    31    23    17    1
    32    15     6    1
    33    29    24   ar
@<TRIPOS>MOLECULE
*****
 29 33 0 0 0
SMALL
GASTEIGER

@<TRIPOS>ATOM
      1 O          61.8324   87.6555   12.0205 O.3     1  UNL1       -0.4630
      2 C          62.8010   84.9461    7.6938 C.3     1  UNL1        0.0308
      3 C          62.8814   85.0844    9.1852 C.ar    1  UNL1       -0.0231
      4 C          62.3167   86.3009    9.8572 C.ar    1  UNL1        0.0324
      5 C          62.3971   86.4391   11.3487 C.ar    1  UNL1        0.1402
      6 C          63.0423   85.3612   12.1681 C.ar    1  UNL1        0.0479
      7 C          63.6070   84.1447   11.4962 C.ar    1  UNL1       -0.0171
      8 C          63.5266   84.0064   10.0047 C.ar    1  UNL1       -0.0292
      9 C          64.0914   82.7900    9.3328 C.3     1  UNL1        0.0304
     10 C          64.1800   83.2529   12.5575 C.3     1  UNL1        0.0606
     11 C          63.9693   83.9181   13.8854 C.ar    1  UNL1        0.0308
     12 S          64.1932   83.7780   15.3619 S.2     1  UNL1       -0.0685
     13 C          63.6285   84.9943   16.0338 C.ar    1  UNL1        0.1342
     14 N          63.0555   85.8862   14.9725 N.ar    1  UNL1       -0.2365
     15 C          63.2662   85.2210   13.6447 C.ar    1  UNL1        0.0868
     16 C          62.1709   89.0227   11.5045 C.3     1  UNL1        0.3201
     17 P          63.2602   89.8219   12.1562 P.3     1  UNL1        0.3872
     18 O          63.0170   88.7950   13.2223 O.2     1  UNL1       -0.2539
     19 O          63.1251   90.5712   10.8638 O.3     1  UNL1       -0.2916
     20 C          63.9948   91.7630   10.5935 C.3     1  UNL1        0.1543
     21 C          64.9996   92.2056   11.6155 C.3     1  UNL1        0.0672
     22 C          65.1347   91.4563   12.9079 C.3     1  UNL1        0.1489
     23 O          64.2649   90.2644   13.1783 O.3     1  UNL1       -0.2896
     24 C          66.1395   91.8988   13.9299 C.ar    1  UNL1        0.0082
     25 C          67.5930   91.9773   13.5677 C.ar    1  UNL1        0.0188
     26 C          68.5978   92.4198   14.5897 C.ar    1  UNL1        0.0986
     27 N          68.1492   92.7839   15.9739 N.ar    1  UNL1       -0.2423
     28 C          66.6956   92.7054   16.3362 C.ar    1  UNL1        0.0986
     29 C          65.6909   92.2629   15.3141 C.ar    1  UNL1        0.0188
@<TRIPOS>BOND
     1     2     3    1
     2     3     4   ar
     3     4     5   ar
     4     5     1    1
     5     1    16    1
     6    17    16    1
     7    17    18    2
     8    17    19    1
     9    19    20    1
    10    20    21    1
    11    21    22    1
    12    22    24    1
    13    24    25   ar
    14    25    26   ar
    15    26    27   ar
    16    27    28   ar
    17    28    29   ar
    18    22    23    1
    19     5     6   ar
    20     6     7   ar
    21     7     8   ar
    22     8     9    1
    23     7    10    1
    24    10    11    1
    25    11    12   ar
    26    12    13   ar
    27    13    14   ar
    28    14    15   ar
    29     8     3   ar
    30    15    11   ar
    31    23    17    1
    32    15     6    1
    33    29    24   ar
@<TRIPOS>MOLECULE
*****
 29 33 0 0 0
SMALL
GASTEIGER

@<TRIPOS>ATOM
      1 O          62.9590   89.7309   15.3827 O.3     1  UNL1       -0.4630
      2 C          61.4012   89.7786   10.4258 C.3     1  UNL1        0.0308
      3 C          62.3371   90.2524   11.4980 C.ar    1  UNL1       -0.0231
      4 C          62.1801   89.7547   12.9043 C.ar    1  UNL1        0.0324
      5 C          63.1160   90.2286   13.9764 C.ar    1  UNL1        0.1402
      6 C          64.2089   91.2001   13.6424 C.ar    1  UNL1        0.0479
      7 C          64.3659   91.6978   12.2360 C.ar    1  UNL1       -0.0171
      8 C          63.4300   91.2240   11.1639 C.ar    1  UNL1       -0.0292
      9 C          63.5870   91.7217    9.7576 C.3     1  UNL1        0.0304
     10 C          65.5285   92.6453   12.2068 C.3     1  UNL1        0.0606
     11 C          66.0899   92.7332   13.5950 C.ar    1  UNL1        0.0308
     12 S          67.1554   93.3730   14.4348 S.2     1  UNL1       -0.0685
     13 C          66.9984   92.8753   15.8410 C.ar    1  UNL1        0.1342
     14 N          65.8359   91.9278   15.8704 N.ar    1  UNL1       -0.2365
     15 C          65.2744   91.8400   14.4822 C.ar    1  UNL1        0.0868
     16 C          63.8653   88.6548   15.9031 C.3     1  UNL1        0.3201
     17 P          63.6720   87.2338   15.4633 P.3     1  UNL1        0.3872
     18 O          64.5189   87.7428   14.3347 O.2     1  UNL1       -0.2539
     19 O          62.8922   87.2183   16.7446 O.3     1  UNL1       -0.2916
     20 C          62.2133   85.9586   17.1941 C.3     1  UNL1        0.1543
     21 C          62.3141   84.7143   16.3624 C.3     1  UNL1        0.0672
     22 C          63.0939   84.7299   15.0811 C.3     1  UNL1        0.1489
     23 O          63.7729   85.9896   14.6316 O.3     1  UNL1       -0.2896
     24 C          63.1947   83.4857   14.2494 C.ar    1  UNL1        0.0082
     25 C          64.2141   83.3975   13.1524 C.ar    1  UNL1        0.0188
     26 C          64.3150   82.1533   12.3207 C.ar    1  UNL1        0.0986
     27 N          63.3966   80.9974   12.5857 N.ar    1  UNL1       -0.2423
     28 C          62.3773   81.0856   13.6827 C.ar    1  UNL1        0.0986
     29 C          62.2764   82.3298   14.5144 C.ar    1  UNL1        0.0188
@<TRIPOS>BOND
     1     2     3    1
     2     3     4   ar
     3     4     5   ar
     4     5     1    1
     5     1    16    1
     6    17    16    1
     7    17    18    2
     8    17    19    1
     9    19    20    1
    10    20    21    1
    11    21    22    1
    12    22    24    1
    13    24    25   ar
    14    25    26   ar
    15    26    27   ar
    16    27    28   ar
    17    28    29   ar
    18    22    23    1
    19     5     6   ar
    20     6     7   ar
    21     7     8   ar
    22     8     9    1
    23     7    10    1
    24    10    11    1
    25    11    12   ar
    26    12    13   ar
    27    13    14   ar
    28    14    15   ar
    29     8     3   ar
    30    15    11   ar
    31    23    17    1
    32    15     6    1
    33    29    24   ar
@<TRIPOS>MOLECULE
*****
 29 33 0 0 0
SMALL
GASTEIGER

@<TRIPOS>ATOM
      1 O          61.7888   88.8328   12.3088 O.3     1  UNL1       -0.4630
      2 C          64.2895   84.3586   13.1622 C.3     1  UNL1        0.0308
      3 C          63.4083   85.2097   12.2967 C.ar    1  UNL1       -0.0231
      4 C          63.0391   86.5958   12.7356 C.ar    1  UNL1        0.0324
      5 C          62.1579   87.4468   11.8699 C.ar    1  UNL1        0.1402
      6 C          61.6458   86.9118   10.5656 C.ar    1  UNL1        0.0479
      7 C          62.0150   85.5257   10.1267 C.ar    1  UNL1       -0.0171
      8 C          62.8962   84.6747   10.9923 C.ar    1  UNL1       -0.0292
      9 C          63.2653   83.2886   10.5534 C.3     1  UNL1        0.0304
     10 C          61.3640   85.2710    8.7995 C.3     1  UNL1        0.0606
     11 C          60.5925   86.4996    8.4182 C.ar    1  UNL1        0.0308
     12 S          59.7134   87.1014    7.3623 S.2     1  UNL1       -0.0685
     13 C          59.3443   88.4874    7.8012 C.ar    1  UNL1        0.1342
     14 N          59.9953   88.7422    9.1283 N.ar    1  UNL1       -0.2365
     15 C          60.7667   87.5136    9.5097 C.ar    1  UNL1        0.0868
     16 C          61.7801   89.9567   11.3155 C.3     1  UNL1        0.3201
     17 P          62.9931   90.8242   11.1538 P.3     1  UNL1        0.3872
     18 O          62.4933   90.8090    9.7395 O.2     1  UNL1       -0.2539
     19 O          63.0716   90.5382   12.6241 O.3     1  UNL1       -0.2916
     20 C          64.1895   91.1143   13.4416 C.3     1  UNL1        0.1543
     21 C          65.2290   91.9765   12.7887 C.3     1  UNL1        0.0672
     22 C          65.1504   92.2626   11.3183 C.3     1  UNL1        0.1489
     23 O          64.0325   91.6864   10.5008 O.3     1  UNL1       -0.2896
     24 C          66.1898   93.1247   10.6654 C.ar    1  UNL1        0.0082
     25 C          67.3914   92.4957   10.0246 C.ar    1  UNL1        0.0188
     26 C          68.4308   93.3579    9.3717 C.ar    1  UNL1        0.0986
     27 N          68.2687   94.8490    9.3595 N.ar    1  UNL1       -0.2423
     28 C          67.0671   95.4780   10.0003 C.ar    1  UNL1        0.0986
     29 C          66.0277   94.6158   10.6532 C.ar    1  UNL1        0.0188
@<TRIPOS>BOND
     1     2     3    1
     2     3     4   ar
     3     4     5   ar
     4     5     1    1
     5     1    16    1
     6    17    16    1
     7    17    18    2
     8    17    19    1
     9    19    20    1
    10    20    21    1
    11    21    22    1
    12    22    24    1
    13    24    25   ar
    14    25    26   ar
    15    26    27   ar
    16    27    28   ar
    17    28    29   ar
    18    22    23    1
    19     5     6   ar
    20     6     7   ar
    21     7     8   ar
    22     8     9    1
    23     7    10    1
    24    10    11    1
    25    11    12   ar
    26    12    13   ar
    27    13    14   ar
    28    14    15   ar
    29     8     3   ar
    30    15    11   ar
    31    23    17    1
    32    15     6    1
    33    29    24   ar
