@<TRIPOS>MOLECULE
*****
 42 46 0 0 0
SMALL
GASTEIGER

@<TRIPOS>ATOM
      1 C          60.3409   93.8988   -2.1758 C.3     1  UNL1        0.0793
      2 C          59.3580   95.2286   -4.1797 C.ar    1  UNL1        0.1351
      3 C          58.4141   95.3173   -5.3421 C.ar    1  UNL1        0.0366
      4 C          57.5093   94.1648   -5.6632 C.ar    1  UNL1        0.0030
      5 C          56.5654   94.2534   -6.8256 C.ar    1  UNL1        0.0008
      6 C          55.6606   93.1009   -7.1466 C.ar    1  UNL1        0.0103
      7 C          55.6997   91.8598   -6.3052 C.ar    1  UNL1        0.0684
      8 C          56.6435   91.7711   -5.1427 C.ar    1  UNL1        0.0103
      9 C          57.5484   92.9236   -4.8217 C.ar    1  UNL1        0.0006
     10 C          58.4922   92.8350   -3.6593 C.ar    1  UNL1       -0.0009
     11 C          59.3970   93.9875   -3.3383 C.ar    1  UNL1        0.0182
     12 C          61.2624   96.8547   -4.8719 C.3     1  UNL1        0.2525
     13 O          60.2628   96.3811   -3.8586 O.3     1  UNL1       -0.4717
     14 C          54.7949   90.7073   -6.6262 C.1     1  UNL1        0.1004
     15 N          53.8901   89.5548   -6.9473 N.1     1  UNL1       -0.1908
     16 C          61.7980   94.1982   -2.3683 C.ar    1  UNL1        0.0245
     17 C          62.5979   93.4189   -3.3698 C.ar    1  UNL1        0.0200
     18 C          64.0551   93.7183   -3.5624 C.ar    1  UNL1        0.1019
     19 N          64.7123   94.7971   -2.7534 N.ar    1  UNL1       -0.2076
     20 C          63.9125   95.5763   -1.7520 C.ar    1  UNL1        0.2598
     21 C          62.4553   95.2769   -1.5594 C.ar    1  UNL1        0.1879
     22 O          64.5697   96.6550   -0.9431 O.3     1  UNL1       -0.4541
     23 C          65.7580   96.3317   -0.0867 C.3     1  UNL1        0.2543
     24 O          61.6555   96.0562   -0.5580 O.3     1  UNL1       -0.4670
     25 C          62.1367   96.1743    0.8578 C.3     1  UNL1        0.2527
     26 C          59.8276   93.5107   -0.8209 C.3     1  UNL1        0.1187
     27 O          60.9905   92.5793   -0.6471 O.3     1  UNL1       -0.3819
     28 H          60.6731   91.7237   -0.3184 H       1  UNL1        0.2107
     29 C          58.6648   94.4421   -0.9946 C.ar    1  UNL1        0.0360
     30 C          58.8688   95.9244   -0.8893 C.ar    1  UNL1        0.0010
     31 C          57.7059   96.8558   -1.0631 C.ar    1  UNL1       -0.0004
     32 C          56.3389   96.3048   -1.3421 C.ar    1  UNL1       -0.0012
     33 C          56.1349   94.8225   -1.4473 C.ar    1  UNL1        0.0153
     34 C          57.2977   93.8911   -1.2736 C.ar    1  UNL1        0.1328
     35 O          56.7945   92.4869   -1.4309 O.3     1  UNL1       -0.4757
     36 C          55.3205   92.5504   -1.7019 C.3     1  UNL1        0.2101
     37 C          54.9129   93.9939   -1.7121 C.3     1  UNL1        0.0767
     38 C          59.3143   93.1226    0.5341 C.3     1  UNL1        0.0492
     39 C          59.9153   93.7311    1.7663 C.3     1  UNL1        0.0750
     40 N          60.4865   92.8487    2.8365 N.3     1  UNL1       -0.2702
     41 C          61.9204   92.4142    2.7642 C.3     1  UNL1        0.0897
     42 C          59.6238   92.4007    3.9789 C.3     1  UNL1        0.0897
@<TRIPOS>BOND
     1    12    13    1
     2    13     2    1
     3     2     3   ar
     4     3     4   ar
     5     4     5   ar
     6     5     6   ar
     7     6     7   ar
     8     7    14    1
     9    14    15    3
    10     7     8   ar
    11     8     9   ar
    12     9    10   ar
    13    10    11   ar
    14     1    11    1
    15     1    16    1
    16    16    17   ar
    17    17    18   ar
    18    18    19   ar
    19    19    20   ar
    20    20    22    1
    21    22    23    1
    22    20    21   ar
    23    21    24    1
    24    24    25    1
    25     1    26    1
    26    26    27    1
    27    26    38    1
    28    38    39    1
    29    39    40    1
    30    40    41    1
    31    40    42    1
    32    26    29    1
    33    29    30   ar
    34    30    31   ar
    35    31    32   ar
    36    32    33   ar
    37    33    34   ar
    38    34    35    1
    39    35    36    1
    40    36    37    1
    41    11     2   ar
    42    21    16   ar
    43    34    29   ar
    44     9     4   ar
    45    37    33    1
    46    27    28    1
@<TRIPOS>MOLECULE
*****
 42 46 0 0 0
SMALL
GASTEIGER

@<TRIPOS>ATOM
      1 C          60.6789   94.0360   -2.2717 C.3     1  UNL1        0.0793
      2 C          59.7208   95.3577   -4.2929 C.ar    1  UNL1        0.1351
      3 C          58.7986   95.4378   -5.4732 C.ar    1  UNL1        0.0366
      4 C          57.9122   94.2763   -5.8126 C.ar    1  UNL1        0.0030
      5 C          56.9900   94.3564   -6.9929 C.ar    1  UNL1        0.0008
      6 C          56.1036   93.1948   -7.3322 C.ar    1  UNL1        0.0103
      7 C          56.1394   91.9532   -6.4914 C.ar    1  UNL1        0.0684
      8 C          57.0617   91.8731   -5.3110 C.ar    1  UNL1        0.0103
      9 C          57.9481   93.0346   -4.9717 C.ar    1  UNL1        0.0006
     10 C          58.8703   92.9546   -3.7914 C.ar    1  UNL1       -0.0009
     11 C          59.7567   94.1161   -3.4520 C.ar    1  UNL1        0.0182
     12 C          61.7818   96.8467   -4.8272 C.3     1  UNL1        0.2525
     13 O          60.6072   96.5192   -3.9535 O.3     1  UNL1       -0.4717
     14 C          55.2530   90.7917   -6.8308 C.1     1  UNL1        0.1004
     15 N          54.3666   89.6302   -7.1701 N.1     1  UNL1       -0.1908
     16 C          62.0963   94.5114   -2.3938 C.ar    1  UNL1        0.0245
     17 C          62.6721   95.4278   -1.3551 C.ar    1  UNL1        0.0200
     18 C          64.0895   95.9033   -1.4772 C.ar    1  UNL1        0.1019
     19 N          64.9311   95.4624   -2.6380 N.ar    1  UNL1       -0.2076
     20 C          64.3553   94.5460   -3.6766 C.ar    1  UNL1        0.2598
     21 C          62.9379   94.0706   -3.5545 C.ar    1  UNL1        0.1879
     22 O          65.1969   94.1052   -4.8373 O.3     1  UNL1       -0.4541
     23 C          65.7464   95.1214   -5.7941 C.3     1  UNL1        0.2543
     24 O          62.3621   93.1542   -4.5931 O.3     1  UNL1       -0.4670
     25 C          62.4180   93.5348   -6.0430 C.3     1  UNL1        0.2527
     26 C          60.1838   93.4804   -0.9694 C.3     1  UNL1        0.1187
     27 O          61.3376   92.5224   -0.9394 O.3     1  UNL1       -0.3819
     28 H          61.0151   91.6346   -0.7186 H       1  UNL1        0.2107
     29 C          59.0300   94.4384   -0.9994 C.ar    1  UNL1        0.0360
     30 C          59.2586   95.8965   -0.7317 C.ar    1  UNL1        0.0010
     31 C          58.1047   96.8545   -0.7617 C.ar    1  UNL1       -0.0004
     32 C          56.7223   96.3544   -1.0594 C.ar    1  UNL1       -0.0012
     33 C          56.4936   94.8963   -1.3271 C.ar    1  UNL1        0.0153
     34 C          57.6474   93.9383   -1.2971 C.ar    1  UNL1        0.1328
     35 O          57.1194   92.5670   -1.5982 O.3     1  UNL1       -0.4757
     36 C          55.6391   92.6775   -1.8144 C.3     1  UNL1        0.2101
     37 C          55.2524   94.1171   -1.6468 C.3     1  UNL1        0.0767
     38 C          59.6886   92.9249    0.3330 C.3     1  UNL1        0.0492
     39 C          60.1588   93.5173    1.6283 C.3     1  UNL1        0.0750
     40 N          61.5050   93.1478    2.1772 N.3     1  UNL1       -0.2702
     41 C          62.7288   93.8863    1.7225 C.3     1  UNL1        0.0897
     42 C          61.6273   92.0397    3.1808 C.3     1  UNL1        0.0897
@<TRIPOS>BOND
     1    12    13    1
     2    13     2    1
     3     2     3   ar
     4     3     4   ar
     5     4     5   ar
     6     5     6   ar
     7     6     7   ar
     8     7    14    1
     9    14    15    3
    10     7     8   ar
    11     8     9   ar
    12     9    10   ar
    13    10    11   ar
    14     1    11    1
    15     1    16    1
    16    16    17   ar
    17    17    18   ar
    18    18    19   ar
    19    19    20   ar
    20    20    22    1
    21    22    23    1
    22    20    21   ar
    23    21    24    1
    24    24    25    1
    25     1    26    1
    26    26    27    1
    27    26    38    1
    28    38    39    1
    29    39    40    1
    30    40    41    1
    31    40    42    1
    32    26    29    1
    33    29    30   ar
    34    30    31   ar
    35    31    32   ar
    36    32    33   ar
    37    33    34   ar
    38    34    35    1
    39    35    36    1
    40    36    37    1
    41    11     2   ar
    42    21    16   ar
    43    34    29   ar
    44     9     4   ar
    45    37    33    1
    46    27    28    1
@<TRIPOS>MOLECULE
*****
 42 46 0 0 0
SMALL
GASTEIGER

@<TRIPOS>ATOM
      1 C          61.6084   95.3984   -2.2408 C.3     1  UNL1        0.0793
      2 C          60.3319   95.5820   -4.4962 C.ar    1  UNL1        0.1351
      3 C          59.2579   95.0970   -5.4243 C.ar    1  UNL1        0.0366
      4 C          58.3865   93.9432   -5.0250 C.ar    1  UNL1        0.0030
      5 C          57.3125   93.4581   -5.9530 C.ar    1  UNL1        0.0008
      6 C          56.4411   92.3043   -5.5538 C.ar    1  UNL1        0.0103
      7 C          56.6437   91.6356   -4.2265 C.ar    1  UNL1        0.0684
      8 C          57.7177   92.1206   -3.2984 C.ar    1  UNL1        0.0103
      9 C          58.5891   93.2744   -3.6977 C.ar    1  UNL1        0.0006
     10 C          59.6630   93.7595   -2.7696 C.ar    1  UNL1       -0.0009
     11 C          60.5344   94.9133   -3.1689 C.ar    1  UNL1        0.0182
     12 C          61.6873   96.8558   -6.3102 C.3     1  UNL1        0.2525
     13 O          61.2033   96.7358   -4.8954 O.3     1  UNL1       -0.4717
     14 C          55.7723   90.4818   -3.8272 C.1     1  UNL1        0.1004
     15 N          54.9009   89.3280   -3.4280 N.1     1  UNL1       -0.1908
     16 C          63.0141   95.5587   -2.7391 C.ar    1  UNL1        0.0245
     17 C          63.8597   96.6953   -2.2458 C.ar    1  UNL1        0.0200
     18 C          65.2654   96.8557   -2.7441 C.ar    1  UNL1        0.1019
     19 N          65.8255   95.8794   -3.7357 N.ar    1  UNL1       -0.2076
     20 C          64.9800   94.7429   -4.2290 C.ar    1  UNL1        0.2598
     21 C          63.5743   94.5825   -3.7306 C.ar    1  UNL1        0.1879
     22 O          65.5402   93.7667   -5.2205 O.3     1  UNL1       -0.4541
     23 C          65.9881   94.2426   -6.5706 C.3     1  UNL1        0.2543
     24 O          62.7288   93.4460   -4.2239 O.3     1  UNL1       -0.4670
     25 C          62.5751   93.2098   -5.6972 C.3     1  UNL1        0.2527
     26 C          61.2767   95.7231   -0.8144 C.3     1  UNL1        0.1187
     27 O          60.1091   96.5454   -1.2732 O.3     1  UNL1       -0.3819
     28 H          60.1100   97.3962   -0.8073 H       1  UNL1        0.2107
     29 C          62.4443   94.9008   -0.3557 C.ar    1  UNL1        0.0360
     30 C          62.6054   93.4906   -0.8410 C.ar    1  UNL1        0.0010
     31 C          63.7730   92.6683   -0.3822 C.ar    1  UNL1       -0.0004
     32 C          64.7796   93.2561    0.5618 C.ar    1  UNL1       -0.0012
     33 C          64.6186   94.6663    1.0471 C.ar    1  UNL1        0.0153
     34 C          63.4510   95.4886    0.5883 C.ar    1  UNL1        0.1328
     35 O          63.5544   96.8398    1.2313 O.3     1  UNL1       -0.4757
     36 C          64.7860   96.8526    2.0875 C.3     1  UNL1        0.2101
     37 C          65.4437   95.5093    1.9736 C.3     1  UNL1        0.0767
     38 C          60.9450   96.0478    0.6119 C.3     1  UNL1        0.0492
     39 C          59.7223   95.4585    1.2504 C.3     1  UNL1        0.0750
     40 N          59.6650   93.9891    1.5465 N.3     1  UNL1       -0.2702
     41 C          58.9723   93.0588    0.5952 C.3     1  UNL1        0.0897
     42 C          60.3003   93.4500    2.7937 C.3     1  UNL1        0.0897
@<TRIPOS>BOND
     1    12    13    1
     2    13     2    1
     3     2     3   ar
     4     3     4   ar
     5     4     5   ar
     6     5     6   ar
     7     6     7   ar
     8     7    14    1
     9    14    15    3
    10     7     8   ar
    11     8     9   ar
    12     9    10   ar
    13    10    11   ar
    14     1    11    1
    15     1    16    1
    16    16    17   ar
    17    17    18   ar
    18    18    19   ar
    19    19    20   ar
    20    20    22    1
    21    22    23    1
    22    20    21   ar
    23    21    24    1
    24    24    25    1
    25     1    26    1
    26    26    27    1
    27    26    38    1
    28    38    39    1
    29    39    40    1
    30    40    41    1
    31    40    42    1
    32    26    29    1
    33    29    30   ar
    34    30    31   ar
    35    31    32   ar
    36    32    33   ar
    37    33    34   ar
    38    34    35    1
    39    35    36    1
    40    36    37    1
    41    11     2   ar
    42    21    16   ar
    43    34    29   ar
    44     9     4   ar
    45    37    33    1
    46    27    28    1
@<TRIPOS>MOLECULE
*****
 42 46 0 0 0
SMALL
GASTEIGER

@<TRIPOS>ATOM
      1 C          60.4339   95.4104   -2.8624 C.3     1  UNL1        0.0793
      2 C          59.7371   95.6714   -5.3516 C.ar    1  UNL1        0.1351
      3 C          58.9202   95.2205   -6.5261 C.ar    1  UNL1        0.0366
      4 C          57.9833   94.0575   -6.3858 C.ar    1  UNL1        0.0030
      5 C          57.1664   93.6066   -7.5602 C.ar    1  UNL1        0.0008
      6 C          56.2294   92.4436   -7.4199 C.ar    1  UNL1        0.0103
      7 C          56.1094   91.7317   -6.1052 C.ar    1  UNL1        0.0684
      8 C          56.9263   92.1826   -4.9306 C.ar    1  UNL1        0.0103
      9 C          57.8632   93.3455   -5.0710 C.ar    1  UNL1        0.0006
     10 C          58.6801   93.7965   -3.8966 C.ar    1  UNL1       -0.0009
     11 C          59.6170   94.9594   -4.0369 C.ar    1  UNL1        0.0182
     12 C          61.7459   96.8116   -6.5411 C.3     1  UNL1        0.2525
     13 O          60.6741   96.8344   -5.4919 O.3     1  UNL1       -0.4717
     14 C          55.1724   90.5687   -5.9648 C.1     1  UNL1        0.1004
     15 N          54.2355   89.4058   -5.8245 N.1     1  UNL1       -0.1908
     16 C          61.9235   95.5341   -2.9881 C.ar    1  UNL1        0.0245
     17 C          62.6293   96.7221   -2.4044 C.ar    1  UNL1        0.0200
     18 C          64.1189   96.8459   -2.5301 C.ar    1  UNL1        0.1019
     19 N          64.9027   95.7817   -3.2395 N.ar    1  UNL1       -0.2076
     20 C          64.1969   94.5938   -3.8232 C.ar    1  UNL1        0.2598
     21 C          62.7073   94.4700   -3.6974 C.ar    1  UNL1        0.1879
     22 O          64.9807   93.5296   -4.5325 O.3     1  UNL1       -0.4541
     23 C          65.7233   93.8598   -5.7933 C.3     1  UNL1        0.2543
     24 O          62.0015   93.2821   -4.2811 O.3     1  UNL1       -0.4670
     25 C          61.8714   93.1434   -5.7691 C.3     1  UNL1        0.2527
     26 C          59.7612   95.7375   -1.5622 C.3     1  UNL1        0.1187
     27 O          59.0157   96.8552   -2.2292 O.3     1  UNL1       -0.3819
     28 H          59.0685   97.6525   -1.6792 H       1  UNL1        0.2107
     29 C          60.5067   94.6198   -0.8953 C.ar    1  UNL1        0.0360
     30 C          60.1364   93.1949   -1.1825 C.ar    1  UNL1        0.0010
     31 C          60.8820   92.0771   -0.5154 C.ar    1  UNL1       -0.0004
     32 C          61.9978   92.3843    0.4387 C.ar    1  UNL1       -0.0012
     33 C          62.3681   93.8092    0.7260 C.ar    1  UNL1        0.0153
     34 C          61.6226   94.9270    0.0590 C.ar    1  UNL1        0.1328
     35 O          62.2083   96.2234    0.5345 O.3     1  UNL1       -0.4757
     36 C          63.3158   95.9070    1.4954 C.3     1  UNL1        0.2101
     37 C          63.4146   94.4149    1.6137 C.3     1  UNL1        0.0767
     38 C          59.0885   96.0647   -0.2621 C.3     1  UNL1        0.0492
     39 C          57.7223   96.6839   -0.2595 C.3     1  UNL1        0.0750
     40 N          56.5968   96.0204   -0.9964 N.3     1  UNL1       -0.2702
     41 C          56.5748   94.5280   -1.1457 C.3     1  UNL1        0.0897
     42 C          55.4933   96.8492   -1.5840 C.3     1  UNL1        0.0897
@<TRIPOS>BOND
     1    12    13    1
     2    13     2    1
     3     2     3   ar
     4     3     4   ar
     5     4     5   ar
     6     5     6   ar
     7     6     7   ar
     8     7    14    1
     9    14    15    3
    10     7     8   ar
    11     8     9   ar
    12     9    10   ar
    13    10    11   ar
    14     1    11    1
    15     1    16    1
    16    16    17   ar
    17    17    18   ar
    18    18    19   ar
    19    19    20   ar
    20    20    22    1
    21    22    23    1
    22    20    21   ar
    23    21    24    1
    24    24    25    1
    25     1    26    1
    26    26    27    1
    27    26    38    1
    28    38    39    1
    29    39    40    1
    30    40    41    1
    31    40    42    1
    32    26    29    1
    33    29    30   ar
    34    30    31   ar
    35    31    32   ar
    36    32    33   ar
    37    33    34   ar
    38    34    35    1
    39    35    36    1
    40    36    37    1
    41    11     2   ar
    42    21    16   ar
    43    34    29   ar
    44     9     4   ar
    45    37    33    1
    46    27    28    1
@<TRIPOS>MOLECULE
*****
 42 46 0 0 0
SMALL
GASTEIGER

@<TRIPOS>ATOM
      1 C          61.9784   88.3178   11.0084 C.3     1  UNL1        0.0793
      2 C          63.6231   89.1841   12.8235 C.ar    1  UNL1        0.1351
      3 C          64.6061   90.2110   13.3021 C.ar    1  UNL1        0.0366
      4 C          64.9276   91.3986   12.4441 C.ar    1  UNL1        0.0030
      5 C          65.9107   92.4255   12.9226 C.ar    1  UNL1        0.0008
      6 C          66.2322   93.6131   12.0645 C.ar    1  UNL1        0.0103
      7 C          65.5706   93.7738   10.7280 C.ar    1  UNL1        0.0684
      8 C          64.5876   92.7468   10.2494 C.ar    1  UNL1        0.0103
      9 C          64.2661   91.5593   11.1074 C.ar    1  UNL1        0.0006
     10 C          63.2830   90.5323   10.6289 C.ar    1  UNL1       -0.0009
     11 C          62.9615   89.3447   11.4869 C.ar    1  UNL1        0.0182
     12 C          64.3084   87.4930   14.6731 C.3     1  UNL1        0.2525
     13 O          63.3016   87.9965   13.6816 O.3     1  UNL1       -0.4717
     14 C          65.8921   94.9614    9.8699 C.1     1  UNL1        0.1004
     15 N          66.2136   96.1490    9.0118 N.1     1  UNL1       -0.1908
     16 C          62.4674   87.0544   10.3644 C.ar    1  UNL1        0.0245
     17 C          62.9427   87.0730    8.9417 C.ar    1  UNL1        0.0200
     18 C          63.4316   85.8096    8.2978 C.ar    1  UNL1        0.1019
     19 N          63.4453   84.5275    9.0764 N.ar    1  UNL1       -0.2076
     20 C          62.9700   84.5089   10.4990 C.ar    1  UNL1        0.2598
     21 C          62.4811   85.7724   11.1429 C.ar    1  UNL1        0.1879
     22 O          62.9837   83.2269   11.2775 O.3     1  UNL1       -0.4541
     23 C          63.8005   82.0651   10.7950 C.3     1  UNL1        0.2543
     24 O          62.0058   85.7538   12.5655 O.3     1  UNL1       -0.4670
     25 C          62.5143   84.7075   13.5126 C.3     1  UNL1        0.2527
     26 C          60.5065   88.5543   11.1737 C.3     1  UNL1        0.1187
     27 O          60.7583   89.1866   12.5104 O.3     1  UNL1       -0.3819
     28 H          60.1347   88.8272   13.1607 H       1  UNL1        0.2107
     29 C          60.2547   87.9220    9.8371 C.ar    1  UNL1        0.0360
     30 C          60.2327   86.4278    9.7064 C.ar    1  UNL1        0.0010
     31 C          59.9809   85.7955    8.3696 C.ar    1  UNL1       -0.0004
     32 C          59.7511   86.6574    7.1636 C.ar    1  UNL1       -0.0012
     33 C          59.7731   88.1515    7.2943 C.ar    1  UNL1        0.0153
     34 C          60.0249   88.7838    8.6310 C.ar    1  UNL1        0.1328
     35 O          59.9886   90.2728    8.4537 O.3     1  UNL1       -0.4757
     36 C          59.7144   90.5608    7.0074 C.3     1  UNL1        0.2101
     37 C          59.5812   89.2498    6.2908 C.3     1  UNL1        0.0767
     38 C          59.0346   88.7908   11.3391 C.3     1  UNL1        0.0492
     39 C          58.5172   89.4626   12.5765 C.3     1  UNL1        0.0750
     40 N          57.9848   88.6380   13.7108 N.3     1  UNL1       -0.2702
     41 C          58.7825   88.4949   14.9730 C.3     1  UNL1        0.0897
     42 C          56.6547   87.9564   13.5829 C.3     1  UNL1        0.0897
@<TRIPOS>BOND
     1    12    13    1
     2    13     2    1
     3     2     3   ar
     4     3     4   ar
     5     4     5   ar
     6     5     6   ar
     7     6     7   ar
     8     7    14    1
     9    14    15    3
    10     7     8   ar
    11     8     9   ar
    12     9    10   ar
    13    10    11   ar
    14     1    11    1
    15     1    16    1
    16    16    17   ar
    17    17    18   ar
    18    18    19   ar
    19    19    20   ar
    20    20    22    1
    21    22    23    1
    22    20    21   ar
    23    21    24    1
    24    24    25    1
    25     1    26    1
    26    26    27    1
    27    26    38    1
    28    38    39    1
    29    39    40    1
    30    40    41    1
    31    40    42    1
    32    26    29    1
    33    29    30   ar
    34    30    31   ar
    35    31    32   ar
    36    32    33   ar
    37    33    34   ar
    38    34    35    1
    39    35    36    1
    40    36    37    1
    41    11     2   ar
    42    21    16   ar
    43    34    29   ar
    44     9     4   ar
    45    37    33    1
    46    27    28    1
