@<TRIPOS>MOLECULE
*****
 28 30 0 0 0
SMALL
GASTEIGER

@<TRIPOS>ATOM
      1 C          63.4164   83.9826   14.8799 C.2     1  UNL1        0.2252
      2 O          64.9112   84.1025   14.8491 O.2     1  UNL1       -0.2750
      3 N          62.6101   84.8805   15.7709 N.am    1  UNL1       -0.3004
      4 H          61.6290   84.8018   15.7911 H       1  UNL1        0.1497
      5 C          62.7277   82.9647   14.0198 C.3     1  UNL1        0.1154
      6 C          63.7158   81.3744   13.2958 C.3     1  UNL1        0.0335
      7 C          63.2625   82.6520   12.6538 C.3     1  UNL1        0.1377
      8 C          62.6974   83.9950   12.2973 C.3     1  UNL1        0.0613
      9 C          62.9777   84.2452   10.8451 C.3     1  UNL1        0.1290
     10 C          63.3281   84.3550    9.3908 C.3     1  UNL1        0.0305
     11 C          62.9385   85.5787    8.6157 C.3     1  UNL1        0.0025
     12 C          62.1984   86.6926    9.2950 C.3     1  UNL1        0.0002
     13 C          61.8480   86.5829   10.7494 C.3     1  UNL1        0.0025
     14 C          62.2376   85.3592   11.5244 C.3     1  UNL1        0.0305
     15 O          63.7160   83.0569   10.3041 O.3     1  UNL1       -0.2256
     16 O          63.8921   82.0722   11.4219 O.3     1  UNL1       -0.2251
     17 C          63.2988   85.8983   16.6310 C.3     1  UNL1        0.1163
     18 C          63.5229   87.2886   16.1143 C.ar    1  UNL1       -0.0024
     19 C          64.1996   87.4974   14.7920 C.ar    1  UNL1        0.0005
     20 C          64.4236   88.8876   14.2753 C.ar    1  UNL1        0.0369
     21 C          63.9709   90.0691   15.0809 C.ar    1  UNL1        0.1468
     22 C          63.2942   89.8604   16.4032 C.ar    1  UNL1        0.0369
     23 C          63.0702   88.4701   16.9199 C.ar    1  UNL1        0.0005
     24 O          64.1950   91.4594   14.5642 O.3     1  UNL1       -0.4045
     25 C          65.4775   91.8024   13.8661 C.3     1  UNL1        0.5753
     26 F          66.7600   92.1454   13.1678 F       1  UNL1       -0.1328
     27 F          64.7105   92.1354   12.6207 F       1  UNL1       -0.1328
     28 F          66.2445   91.4695   15.1113 F       1  UNL1       -0.1328
@<TRIPOS>BOND
     1     6     7    1
     2     7     5    1
     3     5     1    1
     4     1     2    2
     5     1     3   am
     6     3    17    1
     7    17    18    1
     8    18    19   ar
     9    19    20   ar
    10    20    21   ar
    11    21    24    1
    12    24    25    1
    13    25    26    1
    14    25    27    1
    15    25    28    1
    16    21    22   ar
    17    22    23   ar
    18     7     8    1
    19     8     9    1
    20     9    10    1
    21    10    11    1
    22    11    12    1
    23    12    13    1
    24    13    14    1
    25     9    15    1
    26    15    16    1
    27    16     7    1
    28    23    18   ar
    29    14     9    1
    30     3     4    1
@<TRIPOS>MOLECULE
*****
 28 30 0 0 0
SMALL
GASTEIGER

@<TRIPOS>ATOM
      1 C          64.0816   87.7721   14.2520 C.2     1  UNL1        0.2252
      2 O          63.4528   87.6874   12.8929 O.2     1  UNL1       -0.2750
      3 N          64.2069   89.0996   14.9391 N.am    1  UNL1       -0.3004
      4 H          64.6196   89.1552   15.8312 H       1  UNL1        0.1497
      5 C          64.5851   86.5292   14.9242 C.3     1  UNL1        0.1154
      6 C          63.4587   86.2256   16.5578 C.3     1  UNL1        0.0335
      7 C          63.6271   85.4358   15.2938 C.3     1  UNL1        0.1377
      8 C          63.9958   84.8746   13.9525 C.3     1  UNL1        0.0613
      9 C          63.2304   83.5993   13.7572 C.3     1  UNL1        0.1290
     10 C          62.4027   82.3495   13.7039 C.3     1  UNL1        0.0305
     11 C          62.4676   81.4578   12.4995 C.3     1  UNL1        0.0025
     12 C          63.3603   81.8159   11.3485 C.3     1  UNL1        0.0002
     13 C          64.1880   83.0657   11.4018 C.3     1  UNL1        0.0025
     14 C          64.1230   83.9574   12.6062 C.3     1  UNL1        0.0305
     15 O          62.3887   83.3725   14.9779 O.3     1  UNL1       -0.2256
     16 O          62.6338   84.5075   15.9276 O.3     1  UNL1       -0.2251
     17 C          63.7033   90.3424   14.2670 C.3     1  UNL1        0.1163
     18 C          64.6121   91.1318   13.3720 C.ar    1  UNL1       -0.0024
     19 C          65.9385   91.6102   13.8839 C.ar    1  UNL1        0.0005
     20 C          66.8473   92.3996   12.9889 C.ar    1  UNL1        0.0369
     21 C          66.4298   92.7106   11.5822 C.ar    1  UNL1        0.1468
     22 C          65.1035   92.2322   11.0704 C.ar    1  UNL1        0.0369
     23 C          64.1946   91.4428   11.9653 C.ar    1  UNL1        0.0005
     24 O          67.3387   93.5000   10.6873 O.3     1  UNL1       -0.4045
     25 C          68.0255   92.8284    9.5353 C.3     1  UNL1        0.5753
     26 F          68.7124   92.1566    8.3834 F       1  UNL1       -0.1328
     27 F          68.3723   91.6671   10.4192 F       1  UNL1       -0.1328
     28 F          67.6788   93.9895    8.6515 F       1  UNL1       -0.1328
@<TRIPOS>BOND
     1     6     7    1
     2     7     5    1
     3     5     1    1
     4     1     2    2
     5     1     3   am
     6     3    17    1
     7    17    18    1
     8    18    19   ar
     9    19    20   ar
    10    20    21   ar
    11    21    24    1
    12    24    25    1
    13    25    26    1
    14    25    27    1
    15    25    28    1
    16    21    22   ar
    17    22    23   ar
    18     7     8    1
    19     8     9    1
    20     9    10    1
    21    10    11    1
    22    11    12    1
    23    12    13    1
    24    13    14    1
    25     9    15    1
    26    15    16    1
    27    16     7    1
    28    23    18   ar
    29    14     9    1
    30     3     4    1
@<TRIPOS>MOLECULE
*****
 28 30 0 0 0
SMALL
GASTEIGER

@<TRIPOS>ATOM
      1 C          60.7341   89.2548   11.1115 C.2     1  UNL1        0.2252
      2 O          59.7608   90.3208   11.5190 O.2     1  UNL1       -0.2750
      3 N          62.2043   89.5515   11.0860 N.am    1  UNL1       -0.3004
      4 H          62.8432   88.8518   10.8185 H       1  UNL1        0.1497
      5 C          60.2373   87.8919   10.7294 C.3     1  UNL1        0.1154
      6 C          60.1683   88.0468    8.7291 C.3     1  UNL1        0.0335
      7 C          60.9221   87.1226    9.6389 C.3     1  UNL1        0.1377
      8 C          61.5327   86.3593   10.7766 C.3     1  UNL1        0.0613
      9 C          62.4374   85.3113   10.1992 C.3     1  UNL1        0.1290
     10 C          63.3007   84.3175    9.4802 C.3     1  UNL1        0.0305
     11 C          64.1141   83.3277   10.2603 C.3     1  UNL1        0.0025
     12 C          64.0642   83.3318   11.7595 C.3     1  UNL1        0.0002
     13 C          63.2009   84.3256   12.4785 C.3     1  UNL1        0.0025
     14 C          62.3875   85.3154   11.6983 C.3     1  UNL1        0.0305
     15 O          62.3859   85.4270    8.7045 O.3     1  UNL1       -0.2256
     16 O          61.4493   86.5465    8.3582 O.3     1  UNL1       -0.2251
     17 C          62.7011   90.9143   11.4681 C.3     1  UNL1        0.1163
     18 C          63.8690   91.0531   12.3990 C.ar    1  UNL1       -0.0024
     19 C          64.9395   92.0643   12.1136 C.ar    1  UNL1        0.0005
     20 C          66.1075   92.2031   13.0445 C.ar    1  UNL1        0.0369
     21 C          66.2050   91.3306   14.2607 C.ar    1  UNL1        0.1468
     22 C          65.1346   90.3193   14.5461 C.ar    1  UNL1        0.0369
     23 C          63.9665   90.1805   13.6152 C.ar    1  UNL1        0.0005
     24 O          67.3730   91.4694   15.1916 O.3     1  UNL1       -0.4045
     25 C          67.8216   92.8305   15.6343 C.3     1  UNL1        0.5753
     26 F          68.2701   94.1917   16.0770 F       1  UNL1       -0.1328
     27 F          66.5736   92.9753   16.4538 F       1  UNL1       -0.1328
     28 F          69.0695   92.6858   14.8148 F       1  UNL1       -0.1328
@<TRIPOS>BOND
     1     6     7    1
     2     7     5    1
     3     5     1    1
     4     1     2    2
     5     1     3   am
     6     3    17    1
     7    17    18    1
     8    18    19   ar
     9    19    20   ar
    10    20    21   ar
    11    21    24    1
    12    24    25    1
    13    25    26    1
    14    25    27    1
    15    25    28    1
    16    21    22   ar
    17    22    23   ar
    18     7     8    1
    19     8     9    1
    20     9    10    1
    21    10    11    1
    22    11    12    1
    23    12    13    1
    24    13    14    1
    25     9    15    1
    26    15    16    1
    27    16     7    1
    28    23    18   ar
    29    14     9    1
    30     3     4    1
@<TRIPOS>MOLECULE
*****
 28 30 0 0 0
SMALL
GASTEIGER

@<TRIPOS>ATOM
      1 C          60.8331   89.0211   11.7200 C.2     1  UNL1        0.2252
      2 O          59.8962   90.1764   11.9125 O.2     1  UNL1       -0.2750
      3 N          62.2444   89.1083   12.2208 N.am    1  UNL1       -0.3004
      4 H          62.8594   88.3500   12.0944 H       1  UNL1        0.1497
      5 C          60.3589   87.7783   11.0265 C.3     1  UNL1        0.1154
      6 C          60.5480   88.3218    9.1033 C.3     1  UNL1        0.0335
      7 C          61.1554   87.2012    9.8940 C.3     1  UNL1        0.1377
      8 C          61.5963   86.2012   10.9215 C.3     1  UNL1        0.0613
      9 C          62.5383   85.2402   10.2587 C.3     1  UNL1        0.1290
     10 C          63.4587   84.3618    9.4642 C.3     1  UNL1        0.0305
     11 C          64.1397   83.1990   10.1228 C.3     1  UNL1        0.0025
     12 C          63.9005   82.9145   11.5761 C.3     1  UNL1        0.0002
     13 C          62.9801   83.7929   12.3706 C.3     1  UNL1        0.0025
     14 C          62.2990   84.9557   11.7119 C.3     1  UNL1        0.0305
     15 O          62.6796   85.6463    8.8217 O.3     1  UNL1       -0.2256
     16 O          61.8249   86.8583    8.5962 O.3     1  UNL1       -0.2251
     17 C          62.7185   90.3510   12.9143 C.3     1  UNL1        0.1163
     18 C          63.8830   91.1194   12.3633 C.ar    1  UNL1       -0.0024
     19 C          65.0450   91.4580   13.2495 C.ar    1  UNL1        0.0005
     20 C          66.2094   92.2265   12.6985 C.ar    1  UNL1        0.0369
     21 C          66.2119   92.6563   11.2614 C.ar    1  UNL1        0.1468
     22 C          65.0500   92.3177   10.3753 C.ar    1  UNL1        0.0369
     23 C          63.8855   91.5493   10.9263 C.ar    1  UNL1        0.0005
     24 O          67.3764   93.4247   10.7105 O.3     1  UNL1       -0.4045
     25 C          68.1775   92.8605    9.5748 C.3     1  UNL1        0.5753
     26 F          68.9786   92.2961    8.4392 F       1  UNL1       -0.1328
     27 F          68.3761   91.5896   10.3464 F       1  UNL1       -0.1328
     28 F          67.9789   94.1313    8.8032 F       1  UNL1       -0.1328
@<TRIPOS>BOND
     1     6     7    1
     2     7     5    1
     3     5     1    1
     4     1     2    2
     5     1     3   am
     6     3    17    1
     7    17    18    1
     8    18    19   ar
     9    19    20   ar
    10    20    21   ar
    11    21    24    1
    12    24    25    1
    13    25    26    1
    14    25    27    1
    15    25    28    1
    16    21    22   ar
    17    22    23   ar
    18     7     8    1
    19     8     9    1
    20     9    10    1
    21    10    11    1
    22    11    12    1
    23    12    13    1
    24    13    14    1
    25     9    15    1
    26    15    16    1
    27    16     7    1
    28    23    18   ar
    29    14     9    1
    30     3     4    1
@<TRIPOS>MOLECULE
*****
 28 30 0 0 0
SMALL
GASTEIGER

@<TRIPOS>ATOM
      1 C          63.0304   84.3199   14.4282 C.2     1  UNL1        0.2252
      2 O          61.8406   84.8371   15.1809 O.2     1  UNL1       -0.2750
      3 N          64.3015   85.1158   14.3960 N.am    1  UNL1       -0.3004
      4 H          65.0825   84.7763   13.9019 H       1  UNL1        0.1497
      5 C          62.9492   83.0068   13.7075 C.3     1  UNL1        0.1154
      6 C          64.3918   81.7397   13.1219 C.3     1  UNL1        0.0335
      7 C          63.6549   82.8262   12.3963 C.3     1  UNL1        0.1377
      8 C          62.7704   83.9504   11.9448 C.3     1  UNL1        0.0613
      9 C          63.0835   84.2375   10.5061 C.3     1  UNL1        0.1290
     10 C          63.5027   84.4091    9.0762 C.3     1  UNL1        0.0305
     11 C          62.8520   85.4587    8.2247 C.3     1  UNL1        0.0025
     12 C          61.7821   86.3366    8.8032 C.3     1  UNL1        0.0002
     13 C          61.3629   86.1650   10.2332 C.3     1  UNL1        0.0025
     14 C          62.0136   85.1154   11.0846 C.3     1  UNL1        0.0305
     15 O          64.1615   83.2907   10.0685 O.3     1  UNL1       -0.2256
     16 O          64.5146   82.4184   11.2367 O.3     1  UNL1       -0.2251
     17 C          64.3827   86.4288   15.1167 C.3     1  UNL1        0.1163
     18 C          64.1485   87.7092   14.3712 C.ar    1  UNL1       -0.0024
     19 C          64.5435   89.0186   14.9871 C.ar    1  UNL1        0.0005
     20 C          64.3093   90.2990   14.2416 C.ar    1  UNL1        0.0369
     21 C          63.6800   90.2700   12.8804 C.ar    1  UNL1        0.1468
     22 C          63.2850   88.9606   12.2645 C.ar    1  UNL1        0.0369
     23 C          63.5192   87.6801   13.0100 C.ar    1  UNL1        0.0005
     24 O          63.4458   91.5505   12.1349 O.3     1  UNL1       -0.4045
     25 C          64.4697   92.0476   11.1580 C.3     1  UNL1        0.5753
     26 F          65.4938   92.5447   10.1812 F       1  UNL1       -0.1328
     27 F          65.3360   92.4997   12.2961 F       1  UNL1       -0.1328
     28 F          63.6036   91.5955   10.0200 F       1  UNL1       -0.1328
@<TRIPOS>BOND
     1     6     7    1
     2     7     5    1
     3     5     1    1
     4     1     2    2
     5     1     3   am
     6     3    17    1
     7    17    18    1
     8    18    19   ar
     9    19    20   ar
    10    20    21   ar
    11    21    24    1
    12    24    25    1
    13    25    26    1
    14    25    27    1
    15    25    28    1
    16    21    22   ar
    17    22    23   ar
    18     7     8    1
    19     8     9    1
    20     9    10    1
    21    10    11    1
    22    11    12    1
    23    12    13    1
    24    13    14    1
    25     9    15    1
    26    15    16    1
    27    16     7    1
    28    23    18   ar
    29    14     9    1
    30     3     4    1
@<TRIPOS>MOLECULE
*****
 28 30 0 0 0
SMALL
GASTEIGER

@<TRIPOS>ATOM
      1 C          60.9676   88.6104   10.1897 C.2     1  UNL1        0.2252
      2 O          59.9106   89.6665   10.3202 O.2     1  UNL1       -0.2750
      3 N          62.4170   88.9968   10.1806 N.am    1  UNL1       -0.3004
      4 H          63.1108   88.3035   10.0950 H       1  UNL1        0.1497
      5 C          60.5753   87.1676   10.0685 C.3     1  UNL1        0.1154
      6 C          60.8556   86.8781    8.1019 C.3     1  UNL1        0.0335
      7 C          61.4492   86.2141    9.3089 C.3     1  UNL1        0.1377
      8 C          61.8602   85.7495   10.6746 C.3     1  UNL1        0.0613
      9 C          62.8641   84.6476   10.5068 C.3     1  UNL1        0.1290
     10 C          63.8513   83.5654   10.1841 C.3     1  UNL1        0.0305
     11 C          64.5270   82.8122   11.2913 C.3     1  UNL1        0.0025
     12 C          64.2155   83.1411   12.7212 C.3     1  UNL1        0.0002
     13 C          63.2283   84.2232   13.0440 C.3     1  UNL1        0.0025
     14 C          62.5525   84.9765   11.9367 C.3     1  UNL1        0.0305
     15 O          63.0735   84.4312    9.0373 O.3     1  UNL1       -0.2256
     16 O          62.1991   85.3994    8.2969 O.3     1  UNL1       -0.2251
     17 C          62.8092   90.4395   10.3018 C.3     1  UNL1        0.1163
     18 C          63.5968   90.9052   11.4904 C.ar    1  UNL1       -0.0024
     19 C          63.3667   90.2800   12.8344 C.ar    1  UNL1        0.0005
     20 C          64.1543   90.7458   14.0230 C.ar    1  UNL1        0.0369
     21 C          65.1720   91.8366   13.8677 C.ar    1  UNL1        0.1468
     22 C          65.4022   92.4618   12.5238 C.ar    1  UNL1        0.0369
     23 C          64.6146   91.9961   11.3351 C.ar    1  UNL1        0.0005
     24 O          65.9596   92.3023   15.0564 O.3     1  UNL1       -0.4045
     25 C          67.4398   92.5144   14.9389 C.3     1  UNL1        0.5753
     26 F          68.9201   92.7267   14.8214 F       1  UNL1       -0.1328
     27 F          67.2239   93.9983   14.8975 F       1  UNL1       -0.1328
     28 F          67.6558   91.0307   14.9803 F       1  UNL1       -0.1328
@<TRIPOS>BOND
     1     6     7    1
     2     7     5    1
     3     5     1    1
     4     1     2    2
     5     1     3   am
     6     3    17    1
     7    17    18    1
     8    18    19   ar
     9    19    20   ar
    10    20    21   ar
    11    21    24    1
    12    24    25    1
    13    25    26    1
    14    25    27    1
    15    25    28    1
    16    21    22   ar
    17    22    23   ar
    18     7     8    1
    19     8     9    1
    20     9    10    1
    21    10    11    1
    22    11    12    1
    23    12    13    1
    24    13    14    1
    25     9    15    1
    26    15    16    1
    27    16     7    1
    28    23    18   ar
    29    14     9    1
    30     3     4    1
@<TRIPOS>MOLECULE
*****
 28 30 0 0 0
SMALL
GASTEIGER

@<TRIPOS>ATOM
      1 C          61.4273   88.6382   11.1786 C.2     1  UNL1        0.2252
      2 O          60.1464   87.9432   11.5336 O.2     1  UNL1       -0.2750
      3 N          62.3836   88.0018   10.2140 N.am    1  UNL1       -0.3004
      4 H          63.2243   88.4579    9.9810 H       1  UNL1        0.1497
      5 C          61.7520   89.9698   11.7883 C.3     1  UNL1        0.1154
      6 C          61.8491   90.7809    9.9546 C.3     1  UNL1        0.0335
      7 C          62.7657   90.8646   11.1390 C.3     1  UNL1        0.1377
      8 C          63.4704   90.7613   12.4591 C.3     1  UNL1        0.0613
      9 C          64.7281   91.5748   12.3782 C.3     1  UNL1        0.1290
     10 C          65.9441   92.4228   12.1498 C.3     1  UNL1        0.0305
     11 C          66.9521   92.5992   13.2465 C.3     1  UNL1        0.0025
     12 C          66.7442   91.9276   14.5715 C.3     1  UNL1        0.0002
     13 C          65.5282   91.0796   14.7999 C.3     1  UNL1        0.0025
     14 C          64.5201   90.9032   13.7032 C.3     1  UNL1        0.0305
     15 O          64.8007   92.1809   11.0080 O.3     1  UNL1       -0.2256
     16 O          63.5878   91.7420   10.2421 O.3     1  UNL1       -0.2251
     17 C          62.0588   86.6703    9.6044 C.3     1  UNL1        0.1163
     18 C          62.5504   85.4093   10.2512 C.ar    1  UNL1       -0.0024
     19 C          63.3820   84.4386    9.4663 C.ar    1  UNL1        0.0005
     20 C          63.8736   83.1777   10.1131 C.ar    1  UNL1        0.0369
     21 C          63.5335   82.8875   11.5450 C.ar    1  UNL1        0.1468
     22 C          62.7020   83.8581   12.3299 C.ar    1  UNL1        0.0369
     23 C          62.2104   85.1191   11.6831 C.ar    1  UNL1        0.0005
     24 O          64.0252   81.6265   12.1918 O.3     1  UNL1       -0.4045
     25 C          63.0441   80.6325   12.7388 C.3     1  UNL1        0.5753
     26 F          62.0630   79.6385   13.2859 F       1  UNL1       -0.1328
     27 F          63.3584   81.0893   14.1326 F       1  UNL1       -0.1328
     28 F          62.7298   80.1757   11.3451 F       1  UNL1       -0.1328
@<TRIPOS>BOND
     1     6     7    1
     2     7     5    1
     3     5     1    1
     4     1     2    2
     5     1     3   am
     6     3    17    1
     7    17    18    1
     8    18    19   ar
     9    19    20   ar
    10    20    21   ar
    11    21    24    1
    12    24    25    1
    13    25    26    1
    14    25    27    1
    15    25    28    1
    16    21    22   ar
    17    22    23   ar
    18     7     8    1
    19     8     9    1
    20     9    10    1
    21    10    11    1
    22    11    12    1
    23    12    13    1
    24    13    14    1
    25     9    15    1
    26    15    16    1
    27    16     7    1
    28    23    18   ar
    29    14     9    1
    30     3     4    1
@<TRIPOS>MOLECULE
*****
 28 30 0 0 0
SMALL
GASTEIGER

@<TRIPOS>ATOM
      1 C          64.0899   91.0377   12.9301 C.2     1  UNL1        0.2252
      2 O          64.7315   91.6998   11.7469 O.2     1  UNL1       -0.2750
      3 N          62.7100   90.4617   12.8104 N.am    1  UNL1       -0.3004
      4 H          62.2890   90.0271   13.5870 H       1  UNL1        0.1497
      5 C          64.8282   90.9515   14.2330 C.3     1  UNL1        0.1154
      6 C          64.0471   92.0450   15.7243 C.3     1  UNL1        0.0335
      7 C          64.0977   90.5651   15.4848 C.3     1  UNL1        0.1377
      8 C          64.3010   89.1660   14.9836 C.3     1  UNL1        0.0613
      9 C          63.6854   88.2242   15.9756 C.3     1  UNL1        0.1290
     10 C          63.0301   87.4093   17.0510 C.3     1  UNL1        0.0305
     11 C          63.0031   85.9132   16.9470 C.3     1  UNL1        0.0025
     12 C          63.6314   85.2319   15.7676 C.3     1  UNL1        0.0002
     13 C          64.2867   86.0468   14.6922 C.3     1  UNL1        0.0025
     14 C          64.3138   87.5429   14.7962 C.3     1  UNL1        0.0305
     15 O          63.1017   89.0412   17.0900 O.3     1  UNL1       -0.2256
     16 O          63.3565   90.4880   16.7866 O.3     1  UNL1       -0.2251
     17 C          61.9718   90.5479   11.5075 C.3     1  UNL1        0.1163
     18 C          61.6996   89.3031   10.7160 C.ar    1  UNL1       -0.0024
     19 C          60.8369   89.3672    9.4906 C.ar    1  UNL1        0.0005
     20 C          60.5647   88.1225    8.6991 C.ar    1  UNL1        0.0369
     21 C          61.1551   86.8136    9.1330 C.ar    1  UNL1        0.1468
     22 C          62.0178   86.7495   10.3583 C.ar    1  UNL1        0.0369
     23 C          62.2901   87.9943   11.1499 C.ar    1  UNL1        0.0005
     24 O          60.8829   85.5689    8.3414 O.3     1  UNL1       -0.4045
     25 C          61.8427   85.1340    7.2740 C.3     1  UNL1        0.5753
     26 F          62.8026   84.6990    6.2065 F       1  UNL1       -0.1328
     27 F          60.6967   84.6245    6.4511 F       1  UNL1       -0.1328
     28 F          62.9887   85.6434    8.0968 F       1  UNL1       -0.1328
@<TRIPOS>BOND
     1     6     7    1
     2     7     5    1
     3     5     1    1
     4     1     2    2
     5     1     3   am
     6     3    17    1
     7    17    18    1
     8    18    19   ar
     9    19    20   ar
    10    20    21   ar
    11    21    24    1
    12    24    25    1
    13    25    26    1
    14    25    27    1
    15    25    28    1
    16    21    22   ar
    17    22    23   ar
    18     7     8    1
    19     8     9    1
    20     9    10    1
    21    10    11    1
    22    11    12    1
    23    12    13    1
    24    13    14    1
    25     9    15    1
    26    15    16    1
    27    16     7    1
    28    23    18   ar
    29    14     9    1
    30     3     4    1
@<TRIPOS>MOLECULE
*****
 28 30 0 0 0
SMALL
GASTEIGER

@<TRIPOS>ATOM
      1 C          63.8900   81.9722   11.3620 C.2     1  UNL1        0.2252
      2 O          62.9865   81.2129   10.4363 O.2     1  UNL1       -0.2750
      3 N          64.4828   83.2796   10.9264 N.am    1  UNL1       -0.3004
      4 H          65.0758   83.7780   11.5340 H       1  UNL1        0.1497
      5 C          64.2009   81.4244   12.7234 C.3     1  UNL1        0.1154
      6 C          62.7781   80.3160   13.6050 C.3     1  UNL1        0.0335
      7 C          63.2789   81.7044   13.8729 C.3     1  UNL1        0.1377
      8 C          63.9723   83.0342   13.9005 C.3     1  UNL1        0.0613
      9 C          63.3742   83.8459   15.0112 C.3     1  UNL1        0.1290
     10 C          62.6829   84.5345   16.1503 C.3     1  UNL1        0.0305
     11 C          63.0784   85.9294   16.5347 C.3     1  UNL1        0.0025
     12 C          64.1654   86.6357   15.7798 C.3     1  UNL1        0.0002
     13 C          64.8567   85.9471   14.6406 C.3     1  UNL1        0.0025
     14 C          64.4611   84.5522   14.2563 C.3     1  UNL1        0.0305
     15 O          62.3111   83.0178   15.6699 O.3     1  UNL1       -0.2256
     16 O          62.2522   81.6942   14.9665 O.3     1  UNL1       -0.2251
     17 C          64.1719   83.8274    9.5651 C.3     1  UNL1        0.1163
     18 C          63.0183   84.7683    9.3807 C.ar    1  UNL1       -0.0024
     19 C          62.3595   85.3904   10.5761 C.ar    1  UNL1        0.0005
     20 C          61.2059   86.3313   10.3918 C.ar    1  UNL1        0.0369
     21 C          60.7112   86.6500    9.0121 C.ar    1  UNL1        0.1468
     22 C          61.3699   86.0279    7.8168 C.ar    1  UNL1        0.0369
     23 C          62.5236   85.0870    8.0010 C.ar    1  UNL1        0.0005
     24 O          59.5575   87.5909    8.8278 O.3     1  UNL1       -0.4045
     25 C          59.6236   88.6624    7.7803 C.3     1  UNL1        0.5753
     26 F          59.6899   89.7341    6.7328 F       1  UNL1       -0.1328
     27 F          60.6449   89.3976    8.5968 F       1  UNL1       -0.1328
     28 F          58.6025   87.9274    6.9638 F       1  UNL1       -0.1328
@<TRIPOS>BOND
     1     6     7    1
     2     7     5    1
     3     5     1    1
     4     1     2    2
     5     1     3   am
     6     3    17    1
     7    17    18    1
     8    18    19   ar
     9    19    20   ar
    10    20    21   ar
    11    21    24    1
    12    24    25    1
    13    25    26    1
    14    25    27    1
    15    25    28    1
    16    21    22   ar
    17    22    23   ar
    18     7     8    1
    19     8     9    1
    20     9    10    1
    21    10    11    1
    22    11    12    1
    23    12    13    1
    24    13    14    1
    25     9    15    1
    26    15    16    1
    27    16     7    1
    28    23    18   ar
    29    14     9    1
    30     3     4    1
