@<TRIPOS>MOLECULE
*****
 40 44 0 0 0
SMALL
GASTEIGER

@<TRIPOS>ATOM
      1 C          59.2473   90.7390    5.7214 C.ar    1  UNL1       -0.0025
      2 C          60.6790   90.4843    5.3538 C.ar    1  UNL1       -0.0014
      3 C          61.2788   91.1639    4.1586 C.ar    1  UNL1        0.0142
      4 C          60.4468   92.0981    3.3310 C.ar    1  UNL1        0.0479
      5 C          59.0151   92.3528    3.6986 C.ar    1  UNL1        0.0142
      6 C          58.4153   91.6733    4.8938 C.ar    1  UNL1       -0.0014
      7 N          61.0466   92.7776    2.1358 N.pl3   1  UNL1       -0.3041
      8 C          60.1653   93.2299    1.0094 C.3     1  UNL1        0.1122
      9 C          60.7650   93.9095   -0.1858 C.3     1  UNL1        0.1122
     10 N          62.2461   94.1367   -0.2546 N.pl3   1  UNL1       -0.3041
     11 C          63.1275   93.6844    0.8717 C.3     1  UNL1        0.1122
     12 C          62.5277   93.0048    2.0669 C.3     1  UNL1        0.1122
     13 C          62.8459   94.8162   -1.4498 C.ar    1  UNL1        0.0481
     14 C          62.3618   96.1748   -1.8617 C.ar    1  UNL1        0.0176
     15 C          62.9615   96.8543   -3.0569 C.ar    1  UNL1        0.0385
     16 C          64.0456   96.1752   -3.8403 C.ar    1  UNL1        0.1469
     17 C          64.5297   94.8166   -3.4284 C.ar    1  UNL1        0.0385
     18 C          63.9299   94.1371   -2.2332 C.ar    1  UNL1        0.0176
     19 O          64.6453   96.8547   -5.0355 O.3     1  UNL1       -0.4045
     20 C          65.3770   96.0490   -6.0676 C.3     1  UNL1        0.5753
     21 F          66.1087   95.2432   -7.0998 F       1  UNL1       -0.1328
     22 F          64.1152   95.9310   -6.8700 F       1  UNL1       -0.1328
     23 F          66.6389   96.1670   -5.2652 F       1  UNL1       -0.1328
     24 C          58.6475   90.0595    6.9166 C.3     1  UNL1        0.1166
     25 C          59.4034   88.0803    8.4204 C.2     1  UNL1        0.2635
     26 O          58.3798   87.1964    7.7715 O.2     1  UNL1       -0.2685
     27 N          59.5372   89.5118    7.9930 N.am    1  UNL1       -0.2957
     28 H          60.2089   90.0920    8.4189 H       1  UNL1        0.1501
     29 C          60.3329   87.9895   10.9250 C.ar    1  UNL1        0.0811
     30 N          61.3636   87.1712   11.6447 N.ar    1  UNL1       -0.2306
     31 C          61.9606   86.2085   10.6614 C.ar    1  UNL1        0.1483
     32 C          63.0212   85.1574   10.8034 C.ar    1  UNL1        0.0488
     33 C          63.4202   84.3297    9.6178 C.ar    1  UNL1        0.0622
     34 CL         64.4809   83.2785    9.7597 Cl      1  UNL1       -0.0821
     35 C          62.7586   84.5531    8.2903 C.ar    1  UNL1        0.0305
     36 C          61.6979   85.6042    8.1483 C.ar    1  UNL1        0.0824
     37 N          61.2990   86.4319    9.3339 N.ar    1  UNL1       -0.2853
     38 C          60.2930   87.5327    9.4968 C.ar    1  UNL1        0.1326
     39 C          59.6822   90.4988   11.0987 C.3     1  UNL1        0.0067
     40 C          59.4902   89.0743   11.5275 C.3     1  UNL1        0.0475
@<TRIPOS>BOND
     1    39    40    1
     2    40    29    1
     3    29    30   ar
     4    30    31   ar
     5    31    32   ar
     6    32    33   ar
     7    33    34    1
     8    33    35   ar
     9    35    36   ar
    10    36    37   ar
    11    37    38   ar
    12    38    25    1
    13    25    26    2
    14    25    27   am
    15    27    24    1
    16    24     1    1
    17     1     2   ar
    18     2     3   ar
    19     3     4   ar
    20     4     7    1
    21     7     8    1
    22     8     9    1
    23     9    10    1
    24    10    13    1
    25    13    14   ar
    26    14    15   ar
    27    15    16   ar
    28    16    19    1
    29    19    20    1
    30    20    21    1
    31    20    22    1
    32    20    23    1
    33    16    17   ar
    34    17    18   ar
    35    10    11    1
    36    11    12    1
    37     4     5   ar
    38     5     6   ar
    39    38    29   ar
    40     6     1   ar
    41    37    31   ar
    42    12     7    1
    43    18    13   ar
    44    27    28    1
@<TRIPOS>MOLECULE
*****
 40 44 0 0 0
SMALL
GASTEIGER

@<TRIPOS>ATOM
      1 C          59.8307   87.7324    8.9930 C.ar    1  UNL1       -0.0025
      2 C          59.4183   87.2631    7.6294 C.ar    1  UNL1       -0.0014
      3 C          59.4064   88.2237    6.4773 C.ar    1  UNL1        0.0142
      4 C          59.8069   89.6537    6.6890 C.ar    1  UNL1        0.0479
      5 C          60.2193   90.1230    8.0526 C.ar    1  UNL1        0.0142
      6 C          60.2312   89.1624    9.2046 C.ar    1  UNL1       -0.0014
      7 N          59.7949   90.6142    5.5370 N.pl3   1  UNL1       -0.3041
      8 C          61.0765   90.9687    4.8427 C.3     1  UNL1        0.1122
      9 C          61.0645   91.9293    3.6907 C.3     1  UNL1        0.1122
     10 N          59.7711   92.5354    3.2330 N.pl3   1  UNL1       -0.3041
     11 C          58.4895   92.1809    3.9272 C.3     1  UNL1        0.1122
     12 C          58.5015   91.2204    5.0792 C.3     1  UNL1        0.1122
     13 C          59.7591   93.4960    2.0810 C.ar    1  UNL1        0.0481
     14 C          60.3920   94.8482    2.2253 C.ar    1  UNL1        0.0176
     15 C          60.3801   95.8088    1.0733 C.ar    1  UNL1        0.0385
     16 C          59.7352   95.4171   -0.2231 C.ar    1  UNL1        0.1469
     17 C          59.1023   94.0649   -0.3675 C.ar    1  UNL1        0.0385
     18 C          59.1143   93.1043    0.7845 C.ar    1  UNL1        0.0176
     19 O          59.7233   96.3777   -1.3752 O.3     1  UNL1       -0.4045
     20 C          59.6469   95.8614   -2.7814 C.3     1  UNL1        0.5753
     21 F          59.5705   95.3451   -4.1876 F       1  UNL1       -0.1328
     22 F          58.2049   96.2682   -2.8524 F       1  UNL1       -0.1328
     23 F          61.0889   95.4546   -2.7104 F       1  UNL1       -0.1328
     24 C          59.8427   86.7718   10.1450 C.3     1  UNL1        0.1166
     25 C          62.1442   86.5962   11.3376 C.2     1  UNL1        0.2635
     26 O          62.7074   85.8812   10.1452 O.2     1  UNL1       -0.2685
     27 N          60.7119   87.0415   11.3374 N.am    1  UNL1       -0.2957
     28 H          60.3422   87.5107   12.1200 H       1  UNL1        0.1501
     29 C          63.5444   85.8378   13.4845 C.ar    1  UNL1        0.0811
     30 N          64.3633   86.5475   14.5216 N.ar    1  UNL1       -0.2306
     31 C          64.3385   88.0142   14.2081 C.ar    1  UNL1        0.1483
     32 C          64.9677   89.1959   14.8844 C.ar    1  UNL1        0.0488
     33 C          64.7627   90.5744   14.3297 C.ar    1  UNL1        0.0622
     34 CL         65.3920   91.7563   15.0060 Cl      1  UNL1       -0.0821
     35 C          63.9284   90.7712   13.0988 C.ar    1  UNL1        0.0305
     36 C          63.2991   89.5894   12.4225 C.ar    1  UNL1        0.0824
     37 N          63.5041   88.2109   12.9771 N.ar    1  UNL1       -0.2853
     38 C          63.0134   86.8659   12.5300 C.ar    1  UNL1        0.1326
     39 C          64.0652   83.5181   12.4369 C.3     1  UNL1        0.0067
     40 C          63.2994   84.3596   13.4143 C.3     1  UNL1        0.0475
@<TRIPOS>BOND
     1    39    40    1
     2    40    29    1
     3    29    30   ar
     4    30    31   ar
     5    31    32   ar
     6    32    33   ar
     7    33    34    1
     8    33    35   ar
     9    35    36   ar
    10    36    37   ar
    11    37    38   ar
    12    38    25    1
    13    25    26    2
    14    25    27   am
    15    27    24    1
    16    24     1    1
    17     1     2   ar
    18     2     3   ar
    19     3     4   ar
    20     4     7    1
    21     7     8    1
    22     8     9    1
    23     9    10    1
    24    10    13    1
    25    13    14   ar
    26    14    15   ar
    27    15    16   ar
    28    16    19    1
    29    19    20    1
    30    20    21    1
    31    20    22    1
    32    20    23    1
    33    16    17   ar
    34    17    18   ar
    35    10    11    1
    36    11    12    1
    37     4     5   ar
    38     5     6   ar
    39    38    29   ar
    40     6     1   ar
    41    37    31   ar
    42    12     7    1
    43    18    13   ar
    44    27    28    1
@<TRIPOS>MOLECULE
*****
 40 44 0 0 0
SMALL
GASTEIGER

@<TRIPOS>ATOM
      1 C          60.0331   96.5967   -1.3476 C.ar    1  UNL1       -0.0025
      2 C          59.9281   96.8030   -2.8296 C.ar    1  UNL1       -0.0014
      3 C          58.5896   96.7365   -3.5033 C.ar    1  UNL1        0.0142
      4 C          57.3559   96.4635   -2.6949 C.ar    1  UNL1        0.0479
      5 C          57.4608   96.2571   -1.2129 C.ar    1  UNL1        0.0142
      6 C          58.7993   96.3237   -0.5392 C.ar    1  UNL1       -0.0014
      7 N          56.0173   96.3969   -3.3686 N.pl3   1  UNL1       -0.3041
      8 C          54.7658   96.3269   -2.5448 C.3     1  UNL1        0.1122
      9 C          53.4272   96.2604   -3.2185 C.3     1  UNL1        0.1122
     10 N          53.3402   96.2638   -4.7159 N.pl3   1  UNL1       -0.3041
     11 C          54.5918   96.3338   -5.5397 C.3     1  UNL1        0.1122
     12 C          55.9303   96.4004   -4.8661 C.3     1  UNL1        0.1122
     13 C          52.0017   96.1972   -5.3896 C.ar    1  UNL1        0.0481
     14 C          51.9162   96.1678   -6.8869 C.ar    1  UNL1        0.0176
     15 C          50.5777   96.1012   -7.5605 C.ar    1  UNL1        0.0385
     16 C          49.3245   96.0641   -6.7370 C.ar    1  UNL1        0.1469
     17 C          49.4100   96.0935   -5.2397 C.ar    1  UNL1        0.0385
     18 C          50.7486   96.1601   -4.5660 C.ar    1  UNL1        0.0176
     19 O          47.9860   95.9975   -7.4106 O.3     1  UNL1       -0.4045
     20 C          46.9503   95.0264   -6.9267 C.3     1  UNL1        0.5753
     21 F          45.9146   94.0553   -6.4427 F       1  UNL1       -0.1328
     22 F          47.8728   93.8861   -7.2407 F       1  UNL1       -0.1328
     23 F          46.0278   96.1667   -6.6127 F       1  UNL1       -0.1328
     24 C          61.3716   96.6632   -0.6739 C.3     1  UNL1        0.1166
     25 C          61.9050   94.2796    0.2114 C.2     1  UNL1        0.2635
     26 O          61.8143   93.7405   -1.1856 O.2     1  UNL1       -0.2685
     27 N          61.6837   95.7409    0.4671 N.am    1  UNL1       -0.2957
     28 H          61.7432   96.0947    1.3839 H       1  UNL1        0.1501
     29 C          63.5687   92.8041    1.6946 C.ar    1  UNL1        0.0811
     30 N          63.4193   91.9311    2.9052 N.ar    1  UNL1       -0.2306
     31 C          61.9753   91.9449    3.3113 C.ar    1  UNL1        0.1483
     32 C          61.2411   91.2687    4.4309 C.ar    1  UNL1        0.0488
     33 C          59.7638   91.4739    4.5907 C.ar    1  UNL1        0.0622
     34 CL         59.0295   90.7976    5.7104 Cl      1  UNL1       -0.0821
     35 C          59.0208   92.3553    3.6310 C.ar    1  UNL1        0.0305
     36 C          59.7551   93.0315    2.5114 C.ar    1  UNL1        0.0824
     37 N          61.2323   92.8263    2.3515 N.ar    1  UNL1       -0.2853
     38 C          62.2171   93.3573    1.3524 C.ar    1  UNL1        0.1326
     39 C          65.2502   94.4881    0.6522 C.3     1  UNL1        0.0067
     40 C          64.8456   93.0760    0.9559 C.3     1  UNL1        0.0475
@<TRIPOS>BOND
     1    39    40    1
     2    40    29    1
     3    29    30   ar
     4    30    31   ar
     5    31    32   ar
     6    32    33   ar
     7    33    34    1
     8    33    35   ar
     9    35    36   ar
    10    36    37   ar
    11    37    38   ar
    12    38    25    1
    13    25    26    2
    14    25    27   am
    15    27    24    1
    16    24     1    1
    17     1     2   ar
    18     2     3   ar
    19     3     4   ar
    20     4     7    1
    21     7     8    1
    22     8     9    1
    23     9    10    1
    24    10    13    1
    25    13    14   ar
    26    14    15   ar
    27    15    16   ar
    28    16    19    1
    29    19    20    1
    30    20    21    1
    31    20    22    1
    32    20    23    1
    33    16    17   ar
    34    17    18   ar
    35    10    11    1
    36    11    12    1
    37     4     5   ar
    38     5     6   ar
    39    38    29   ar
    40     6     1   ar
    41    37    31   ar
    42    12     7    1
    43    18    13   ar
    44    27    28    1
@<TRIPOS>MOLECULE
*****
 40 44 0 0 0
SMALL
GASTEIGER

@<TRIPOS>ATOM
      1 C          59.4394   90.5089    5.9245 C.ar    1  UNL1       -0.0025
      2 C          60.8267   90.2005    5.4448 C.ar    1  UNL1       -0.0014
      3 C          61.3783   90.9057    4.2412 C.ar    1  UNL1        0.0142
      4 C          60.5424   91.9194    3.5174 C.ar    1  UNL1        0.0479
      5 C          59.1551   92.2278    3.9971 C.ar    1  UNL1        0.0142
      6 C          58.6036   91.5226    5.2006 C.ar    1  UNL1       -0.0014
      7 N          61.0940   92.6246    2.3139 N.pl3   1  UNL1       -0.3041
      8 C          60.1730   93.0634    1.2142 C.3     1  UNL1        0.1122
      9 C          60.7246   93.7686    0.0107 C.3     1  UNL1        0.1122
     10 N          62.1971   94.0350   -0.0932 N.pl3   1  UNL1       -0.3041
     11 C          63.1181   93.5962    1.0065 C.3     1  UNL1        0.1122
     12 C          62.5665   92.8910    2.2100 C.3     1  UNL1        0.1122
     13 C          62.7487   94.7402   -1.2967 C.ar    1  UNL1        0.0481
     14 C          62.2868   96.1278   -1.6301 C.ar    1  UNL1        0.0176
     15 C          62.8384   96.8330   -2.8336 C.ar    1  UNL1        0.0385
     16 C          63.8518   96.1506   -3.7038 C.ar    1  UNL1        0.1469
     17 C          64.3136   94.7630   -3.3704 C.ar    1  UNL1        0.0385
     18 C          63.7621   94.0578   -2.1669 C.ar    1  UNL1        0.0176
     19 O          64.4034   96.8558   -4.9073 O.3     1  UNL1       -0.4045
     20 C          65.4033   96.1665   -5.7877 C.3     1  UNL1        0.5753
     21 F          66.4032   95.4772   -6.6680 F       1  UNL1       -0.1328
     22 F          66.5176   96.6841   -4.9272 F       1  UNL1       -0.1328
     23 F          64.2890   95.6489   -6.6481 F       1  UNL1       -0.1328
     24 C          58.8878   89.8037    7.1280 C.3     1  UNL1        0.1166
     25 C          60.4808   89.2912    9.1154 C.2     1  UNL1        0.2635
     26 O          61.0347   88.1145    8.3679 O.2     1  UNL1       -0.2685
     27 N          59.4074   90.1357    8.4954 N.am    1  UNL1       -0.2957
     28 H          59.0438   90.9080    8.9860 H       1  UNL1        0.1501
     29 C          60.3638   89.2381   11.7853 C.ar    1  UNL1        0.0811
     30 N          61.2177   89.7756   12.8953 N.ar    1  UNL1       -0.2306
     31 C          62.3820   90.4928   12.2788 C.ar    1  UNL1        0.1483
     32 C          63.5471   91.2195   12.8824 C.ar    1  UNL1        0.0488
     33 C          64.5778   91.8520   11.9950 C.ar    1  UNL1        0.0622
     34 CL         65.7430   92.5788   12.5987 Cl      1  UNL1       -0.0821
     35 C          64.4434   91.7579   10.5040 C.ar    1  UNL1        0.0305
     36 C          63.2783   91.0312    9.9004 C.ar    1  UNL1        0.0824
     37 N          62.2476   90.3987   10.7878 N.ar    1  UNL1       -0.2853
     38 C          61.0003   89.6232   10.4828 C.ar    1  UNL1        0.1326
     39 C          58.1160   88.8269   13.0215 C.3     1  UNL1        0.0067
     40 C          59.0960   88.4534   11.9491 C.3     1  UNL1        0.0475
@<TRIPOS>BOND
     1    39    40    1
     2    40    29    1
     3    29    30   ar
     4    30    31   ar
     5    31    32   ar
     6    32    33   ar
     7    33    34    1
     8    33    35   ar
     9    35    36   ar
    10    36    37   ar
    11    37    38   ar
    12    38    25    1
    13    25    26    2
    14    25    27   am
    15    27    24    1
    16    24     1    1
    17     1     2   ar
    18     2     3   ar
    19     3     4   ar
    20     4     7    1
    21     7     8    1
    22     8     9    1
    23     9    10    1
    24    10    13    1
    25    13    14   ar
    26    14    15   ar
    27    15    16   ar
    28    16    19    1
    29    19    20    1
    30    20    21    1
    31    20    22    1
    32    20    23    1
    33    16    17   ar
    34    17    18   ar
    35    10    11    1
    36    11    12    1
    37     4     5   ar
    38     5     6   ar
    39    38    29   ar
    40     6     1   ar
    41    37    31   ar
    42    12     7    1
    43    18    13   ar
    44    27    28    1
@<TRIPOS>MOLECULE
*****
 40 44 0 0 0
SMALL
GASTEIGER

@<TRIPOS>ATOM
      1 C          59.8343   88.2271    9.1275 C.ar    1  UNL1       -0.0025
      2 C          59.1568   87.7601    7.8734 C.ar    1  UNL1       -0.0014
      3 C          59.1424   88.6380    6.6572 C.ar    1  UNL1        0.0142
      4 C          59.8056   89.9829    6.6951 C.ar    1  UNL1        0.0479
      5 C          60.4831   90.4498    7.9492 C.ar    1  UNL1        0.0142
      6 C          60.4975   89.5720    9.1654 C.ar    1  UNL1       -0.0014
      7 N          59.7912   90.8607    5.4789 N.pl3   1  UNL1       -0.3041
      8 C          61.0748   91.1889    4.7757 C.3     1  UNL1        0.1122
      9 C          61.0605   92.0668    3.5595 C.3     1  UNL1        0.1122
     10 N          59.7625   92.6165    3.0466 N.pl3   1  UNL1       -0.3041
     11 C          58.4788   92.2883    3.7498 C.3     1  UNL1        0.1122
     12 C          58.4932   91.4104    4.9660 C.3     1  UNL1        0.1122
     13 C          59.7481   93.4943    1.8304 C.ar    1  UNL1        0.0481
     14 C          59.0626   93.0313    0.5791 C.ar    1  UNL1        0.0176
     15 C          59.0482   93.9091   -0.6371 C.ar    1  UNL1        0.0385
     16 C          59.7194   95.2501   -0.6021 C.ar    1  UNL1        0.1469
     17 C          60.4049   95.7132    0.6492 C.ar    1  UNL1        0.0385
     18 C          60.4192   94.8354    1.8654 C.ar    1  UNL1        0.0176
     19 O          59.7050   96.1280   -1.8182 O.3     1  UNL1       -0.4045
     20 C          60.0616   95.5578   -3.1590 C.3     1  UNL1        0.5753
     21 F          60.4181   94.9876   -4.4998 F       1  UNL1       -0.1328
     22 F          61.4251   95.2019   -2.6451 F       1  UNL1       -0.1328
     23 F          58.6980   95.9136   -3.6730 F       1  UNL1       -0.1328
     24 C          59.8487   87.3492   10.3437 C.3     1  UNL1        0.1166
     25 C          61.9978   85.9783   10.8454 C.2     1  UNL1        0.2635
     26 O          62.6556   87.2101   11.3933 O.2     1  UNL1       -0.2685
     27 N          60.5944   86.0479   10.3207 N.am    1  UNL1       -0.2957
     28 H          60.1627   85.2395    9.9611 H       1  UNL1        0.1501
     29 C          63.4992   84.1144    9.6550 C.ar    1  UNL1        0.0811
     30 N          64.0872   82.7995   10.0738 N.ar    1  UNL1       -0.2306
     31 C          63.6949   82.5495   11.4999 C.ar    1  UNL1        0.1483
     32 C          63.9866   81.4151   12.4369 C.ar    1  UNL1        0.0488
     33 C          63.4479   81.4411   13.8366 C.ar    1  UNL1        0.0622
     34 CL         63.7396   80.3067   14.7737 Cl      1  UNL1       -0.0821
     35 C          62.6175   82.6015   14.2992 C.ar    1  UNL1        0.0305
     36 C          62.3258   83.7358   13.3621 C.ar    1  UNL1        0.0824
     37 N          62.8645   83.7098   11.9625 N.ar    1  UNL1       -0.2853
     38 C          62.7435   84.6770   10.8223 C.ar    1  UNL1        0.1326
     39 C          62.4517   84.8678    7.4000 C.3     1  UNL1        0.0067
     40 C          63.6418   84.7543    8.3059 C.3     1  UNL1        0.0475
@<TRIPOS>BOND
     1    39    40    1
     2    40    29    1
     3    29    30   ar
     4    30    31   ar
     5    31    32   ar
     6    32    33   ar
     7    33    34    1
     8    33    35   ar
     9    35    36   ar
    10    36    37   ar
    11    37    38   ar
    12    38    25    1
    13    25    26    2
    14    25    27   am
    15    27    24    1
    16    24     1    1
    17     1     2   ar
    18     2     3   ar
    19     3     4   ar
    20     4     7    1
    21     7     8    1
    22     8     9    1
    23     9    10    1
    24    10    13    1
    25    13    14   ar
    26    14    15   ar
    27    15    16   ar
    28    16    19    1
    29    19    20    1
    30    20    21    1
    31    20    22    1
    32    20    23    1
    33    16    17   ar
    34    17    18   ar
    35    10    11    1
    36    11    12    1
    37     4     5   ar
    38     5     6   ar
    39    38    29   ar
    40     6     1   ar
    41    37    31   ar
    42    12     7    1
    43    18    13   ar
    44    27    28    1
