@<TRIPOS>MOLECULE
*****
 24 27 0 0 0
SMALL
GASTEIGER

@<TRIPOS>ATOM
      1 C          62.8717   86.3254   12.7372 C.ar    1  UNL1        0.1215
      2 N          63.7917   87.3210   13.3792 N.ar    1  UNL1       -0.2309
      3 C          63.5604   88.6527   12.7286 C.ar    1  UNL1        0.0983
      4 C          64.1803   90.0001   12.9520 C.ar    1  UNL1        0.0206
      5 C          63.7373   91.1749   12.1313 C.ar    1  UNL1        0.0016
      6 C          62.6743   91.0022   11.0872 C.ar    1  UNL1        0.0016
      7 C          62.0543   89.6547   10.8638 C.ar    1  UNL1        0.0188
      8 C          62.4974   88.4800   11.6845 C.ar    1  UNL1        0.0789
      9 N          62.0718   87.0416   11.6898 N.ar    1  UNL1       -0.3106
     10 C          63.0634   81.3360   11.2985 C.3     1  UNL1        0.0896
     11 N          62.8654   82.3745   12.3628 N.3     1  UNL1       -0.2711
     12 C          62.5652   81.9566   13.7717 C.3     1  UNL1        0.0722
     13 C          62.3672   82.9950   14.8359 C.3     1  UNL1        0.0178
     14 C          62.4694   84.4513   14.4910 C.3     1  UNL1        0.0103
     15 C          62.7695   84.8691   13.0821 C.3     1  UNL1        0.0729
     16 C          62.9675   83.8307   12.0179 C.3     1  UNL1        0.0796
     17 C          61.0292   86.4274   10.8033 C.3     1  UNL1        0.1339
     18 C          61.4028   85.9330    9.4374 C.ar    1  UNL1        0.0006
     19 C          62.7782   85.3893    9.1868 C.ar    1  UNL1       -0.0001
     20 C          63.1519   84.8948    7.8208 C.ar    1  UNL1        0.0294
     21 C          62.1501   84.9440    6.7054 C.ar    1  UNL1        0.1401
     22 F          62.5238   84.4495    5.3395 F       1  UNL1       -0.2042
     23 C          60.7748   85.4877    6.9560 C.ar    1  UNL1        0.0294
     24 C          60.4011   85.9822    8.3220 C.ar    1  UNL1       -0.0001
@<TRIPOS>BOND
     1    10    11    1
     2    11    12    1
     3    12    13    1
     4    13    14    1
     5    14    15    1
     6    15     1    1
     7     1     2   ar
     8     2     3   ar
     9     3     4   ar
    10     4     5   ar
    11     5     6   ar
    12     6     7   ar
    13     7     8   ar
    14     8     9   ar
    15     9    17    1
    16    17    18    1
    17    18    19   ar
    18    19    20   ar
    19    20    21   ar
    20    21    22    1
    21    21    23   ar
    22    23    24   ar
    23    15    16    1
    24    16    11    1
    25     9     1   ar
    26    24    18   ar
    27     8     3   ar
@<TRIPOS>MOLECULE
*****
 24 27 0 0 0
SMALL
GASTEIGER

@<TRIPOS>ATOM
      1 C          64.4287   89.8456   14.2117 C.ar    1  UNL1        0.1215
      2 N          65.7589   90.5382   14.2401 N.ar    1  UNL1       -0.2309
      3 C          65.7914   91.5263   13.1119 C.ar    1  UNL1        0.0983
      4 C          66.8446   92.4900   12.6517 C.ar    1  UNL1        0.0206
      5 C          66.5877   93.3717   11.4657 C.ar    1  UNL1        0.0016
      6 C          65.2775   93.2897   10.7400 C.ar    1  UNL1        0.0016
      7 C          64.2242   92.3260   11.2003 C.ar    1  UNL1        0.0188
      8 C          64.4811   91.4443   12.3862 C.ar    1  UNL1        0.0789
      9 N          63.6390   90.4056   13.0659 N.ar    1  UNL1       -0.3106
     10 C          63.9675   84.8226   15.4595 C.3     1  UNL1        0.0896
     11 N          63.7383   86.2687   15.7861 N.3     1  UNL1       -0.2711
     12 C          63.0494   86.6492   17.0630 C.3     1  UNL1        0.0722
     13 C          62.8203   88.0951   17.3895 C.3     1  UNL1        0.0178
     14 C          63.2801   89.1606   16.4390 C.3     1  UNL1        0.0103
     15 C          63.9690   88.7801   15.1621 C.3     1  UNL1        0.0729
     16 C          64.1981   87.3342   14.8356 C.3     1  UNL1        0.0796
     17 C          62.2509   89.9984   12.6694 C.3     1  UNL1        0.1339
     18 C          62.0455   89.0455   11.5294 C.ar    1  UNL1        0.0006
     19 C          61.3109   89.4932   10.3006 C.ar    1  UNL1       -0.0001
     20 C          61.1055   88.5403    9.1605 C.ar    1  UNL1        0.0294
     21 C          61.6348   87.1396    9.2493 C.ar    1  UNL1        0.1401
     22 F          61.4294   86.1867    8.1092 F       1  UNL1       -0.2042
     23 C          62.3694   86.6918   10.4780 C.ar    1  UNL1        0.0294
     24 C          62.5748   87.6447   11.6181 C.ar    1  UNL1       -0.0001
@<TRIPOS>BOND
     1    10    11    1
     2    11    12    1
     3    12    13    1
     4    13    14    1
     5    14    15    1
     6    15     1    1
     7     1     2   ar
     8     2     3   ar
     9     3     4   ar
    10     4     5   ar
    11     5     6   ar
    12     6     7   ar
    13     7     8   ar
    14     8     9   ar
    15     9    17    1
    16    17    18    1
    17    18    19   ar
    18    19    20   ar
    19    20    21   ar
    20    21    22    1
    21    21    23   ar
    22    23    24   ar
    23    15    16    1
    24    16    11    1
    25     9     1   ar
    26    24    18   ar
    27     8     3   ar
@<TRIPOS>MOLECULE
*****
 24 27 0 0 0
SMALL
GASTEIGER

@<TRIPOS>ATOM
      1 C          63.6409   90.6370   12.9508 C.ar    1  UNL1        0.1215
      2 N          64.5807   91.5633   12.2375 N.ar    1  UNL1       -0.2309
      3 C          65.4968   92.1707   13.2581 C.ar    1  UNL1        0.0983
      4 C          66.6229   93.1542   13.1372 C.ar    1  UNL1        0.0206
      5 C          67.3754   93.5868   14.3605 C.ar    1  UNL1        0.0016
      6 C          67.0019   93.0359   15.7047 C.ar    1  UNL1        0.0016
      7 C          65.8758   92.0524   15.8257 C.ar    1  UNL1        0.0188
      8 C          65.1233   91.6198   14.6024 C.ar    1  UNL1        0.0789
      9 N          63.9763   90.6720   14.4125 N.ar    1  UNL1       -0.3106
     10 C          61.9923   86.1446   10.9260 C.3     1  UNL1        0.0896
     11 N          61.7319   87.5732   11.3020 N.3     1  UNL1       -0.2711
     12 C          60.3870   88.1842   11.0415 C.3     1  UNL1        0.0722
     13 C          60.1267   89.6127   11.4175 C.3     1  UNL1        0.0178
     14 C          61.2114   90.4303   12.0539 C.3     1  UNL1        0.0103
     15 C          62.5563   89.8194   12.3144 C.3     1  UNL1        0.0729
     16 C          62.8166   88.3908   11.9384 C.3     1  UNL1        0.0796
     17 C          63.2859   89.8954   15.4943 C.3     1  UNL1        0.1339
     18 C          63.5318   88.4224   15.6338 C.ar    1  UNL1        0.0006
     19 C          62.9221   87.6650   16.7761 C.ar    1  UNL1       -0.0001
     20 C          63.1679   86.1919   16.9157 C.ar    1  UNL1        0.0294
     21 C          64.0235   85.4761   15.9129 C.ar    1  UNL1        0.1401
     22 F          64.2694   84.0030   16.0524 F       1  UNL1       -0.2042
     23 C          64.6332   86.2333   14.7706 C.ar    1  UNL1        0.0294
     24 C          64.3873   87.7064   14.6310 C.ar    1  UNL1       -0.0001
@<TRIPOS>BOND
     1    10    11    1
     2    11    12    1
     3    12    13    1
     4    13    14    1
     5    14    15    1
     6    15     1    1
     7     1     2   ar
     8     2     3   ar
     9     3     4   ar
    10     4     5   ar
    11     5     6   ar
    12     6     7   ar
    13     7     8   ar
    14     8     9   ar
    15     9    17    1
    16    17    18    1
    17    18    19   ar
    18    19    20   ar
    19    20    21   ar
    20    21    22    1
    21    21    23   ar
    22    23    24   ar
    23    15    16    1
    24    16    11    1
    25     9     1   ar
    26    24    18   ar
    27     8     3   ar
@<TRIPOS>MOLECULE
*****
 24 27 0 0 0
SMALL
GASTEIGER

@<TRIPOS>ATOM
      1 C          62.1086   89.2348   10.8983 C.ar    1  UNL1        0.1215
      2 N          61.5967   90.0539    9.7507 N.ar    1  UNL1       -0.2309
      3 C          60.6491   89.2020    8.9593 C.ar    1  UNL1        0.0983
      4 C          59.8439   89.4777    7.7242 C.ar    1  UNL1        0.0206
      5 C          58.9649   88.4077    7.1476 C.ar    1  UNL1        0.0016
      6 C          58.8912   87.0620    7.8061 C.ar    1  UNL1        0.0016
      7 C          59.6964   86.7863    9.0412 C.ar    1  UNL1        0.0188
      8 C          60.5753   87.8563    9.6178 C.ar    1  UNL1        0.0789
      9 N          61.4774   87.8766   10.8161 N.ar    1  UNL1       -0.3106
     10 C          65.4743   92.7747   12.6706 C.3     1  UNL1        0.0896
     11 N          64.7638   91.4633   12.8305 N.3     1  UNL1       -0.2711
     12 C          65.0257   90.6105   14.0364 C.3     1  UNL1        0.0722
     13 C          64.3153   89.2992   14.1962 C.3     1  UNL1        0.0178
     14 C          63.3429   88.8406   13.1501 C.3     1  UNL1        0.0103
     15 C          63.0810   89.6934   11.9443 C.3     1  UNL1        0.0729
     16 C          63.7914   91.0047   11.7845 C.3     1  UNL1        0.0796
     17 C          61.7077   86.7384   11.7656 C.3     1  UNL1        0.1339
     18 C          62.4470   85.5167   11.3067 C.ar    1  UNL1        0.0006
     19 C          62.8673   84.4763   12.3023 C.ar    1  UNL1       -0.0001
     20 C          63.6066   83.2545   11.8434 C.ar    1  UNL1        0.0294
     21 C          63.9257   83.0731   10.3890 C.ar    1  UNL1        0.1401
     22 F          64.6651   81.8513    9.9301 F       1  UNL1       -0.2042
     23 C          63.5055   84.1134    9.3935 C.ar    1  UNL1        0.0294
     24 C          62.7661   85.3352    9.8524 C.ar    1  UNL1       -0.0001
@<TRIPOS>BOND
     1    10    11    1
     2    11    12    1
     3    12    13    1
     4    13    14    1
     5    14    15    1
     6    15     1    1
     7     1     2   ar
     8     2     3   ar
     9     3     4   ar
    10     4     5   ar
    11     5     6   ar
    12     6     7   ar
    13     7     8   ar
    14     8     9   ar
    15     9    17    1
    16    17    18    1
    17    18    19   ar
    18    19    20   ar
    19    20    21   ar
    20    21    22    1
    21    21    23   ar
    22    23    24   ar
    23    15    16    1
    24    16    11    1
    25     9     1   ar
    26    24    18   ar
    27     8     3   ar
@<TRIPOS>MOLECULE
*****
 24 27 0 0 0
SMALL
GASTEIGER

@<TRIPOS>ATOM
      1 C          63.6653   90.5776   13.0413 C.ar    1  UNL1        0.1215
      2 N          64.5733   91.5273   12.3177 N.ar    1  UNL1       -0.2309
      3 C          65.4768   92.1669   13.3300 C.ar    1  UNL1        0.0983
      4 C          66.5726   93.1826   13.1974 C.ar    1  UNL1        0.0206
      5 C          67.3188   93.6438   14.4141 C.ar    1  UNL1        0.0016
      6 C          66.9692   93.0895   15.7633 C.ar    1  UNL1        0.0016
      7 C          65.8733   92.0738   15.8959 C.ar    1  UNL1        0.0188
      8 C          65.1271   91.6126   14.6792 C.ar    1  UNL1        0.0789
      9 N          64.0076   90.6303   14.5008 N.ar    1  UNL1       -0.3106
     10 C          58.6445   89.4326   12.3481 C.3     1  UNL1        0.0896
     11 N          60.0914   89.1524   12.0688 N.3     1  UNL1       -0.2711
     12 C          60.4747   88.0195   11.1635 C.3     1  UNL1        0.0722
     13 C          61.9216   87.7393   10.8841 C.3     1  UNL1        0.0178
     14 C          62.9851   88.5920   11.5101 C.3     1  UNL1        0.0103
     15 C          62.6018   89.7249   12.4154 C.3     1  UNL1        0.0729
     16 C          61.1549   90.0051   12.6947 C.3     1  UNL1        0.0796
     17 C          63.3465   89.8396   15.5906 C.3     1  UNL1        0.1339
     18 C          63.5678   88.3590   15.6829 C.ar    1  UNL1        0.0006
     19 C          64.3952   87.6582   14.6463 C.ar    1  UNL1       -0.0001
     20 C          64.6166   86.1775   14.7386 C.ar    1  UNL1        0.0294
     21 C          64.0106   85.3975   15.8676 C.ar    1  UNL1        0.1401
     22 F          64.2320   83.9168   15.9599 F       1  UNL1       -0.2042
     23 C          63.1833   86.0982   16.9041 C.ar    1  UNL1        0.0294
     24 C          62.9619   87.5789   16.8118 C.ar    1  UNL1       -0.0001
@<TRIPOS>BOND
     1    10    11    1
     2    11    12    1
     3    12    13    1
     4    13    14    1
     5    14    15    1
     6    15     1    1
     7     1     2   ar
     8     2     3   ar
     9     3     4   ar
    10     4     5   ar
    11     5     6   ar
    12     6     7   ar
    13     7     8   ar
    14     8     9   ar
    15     9    17    1
    16    17    18    1
    17    18    19   ar
    18    19    20   ar
    19    20    21   ar
    20    21    22    1
    21    21    23   ar
    22    23    24   ar
    23    15    16    1
    24    16    11    1
    25     9     1   ar
    26    24    18   ar
    27     8     3   ar
@<TRIPOS>MOLECULE
*****
 24 27 0 0 0
SMALL
GASTEIGER

@<TRIPOS>ATOM
      1 C          62.1267   86.6061   11.3789 C.ar    1  UNL1        0.1215
      2 N          61.7621   85.7070   10.2349 N.ar    1  UNL1       -0.2309
      3 C          60.9532   86.5062    9.2567 C.ar    1  UNL1        0.0983
      4 C          60.3224   86.1454    7.9445 C.ar    1  UNL1        0.0206
      5 C          59.5563   87.1778    7.1716 C.ar    1  UNL1        0.0016
      6 C          59.4210   88.5709    7.7110 C.ar    1  UNL1        0.0016
      7 C          60.0518   88.9317    9.0232 C.ar    1  UNL1        0.0188
      8 C          60.8179   87.8993    9.7960 C.ar    1  UNL1        0.0789
      9 N          61.5431   87.9610   11.1076 N.ar    1  UNL1       -0.3106
     10 C          63.8445   82.9630   14.6617 C.3     1  UNL1        0.0896
     11 N          63.7921   84.3968   14.2241 N.3     1  UNL1       -0.2711
     12 C          64.5462   85.4429   14.9903 C.3     1  UNL1        0.0722
     13 C          64.4938   86.8766   14.5527 C.3     1  UNL1        0.0178
     14 C          63.6873   87.2644   13.3489 C.3     1  UNL1        0.0103
     15 C          62.9332   86.2183   12.5827 C.3     1  UNL1        0.0729
     16 C          62.9856   84.7846   13.0203 C.3     1  UNL1        0.0796
     17 C          61.6637   89.1662   11.9925 C.3     1  UNL1        0.1339
     18 C          62.7260   90.1905   11.7242 C.ar    1  UNL1        0.0006
     19 C          63.5871   90.6897   12.8465 C.ar    1  UNL1       -0.0001
     20 C          64.6495   91.7141   12.5783 C.ar    1  UNL1        0.0294
     21 C          64.8509   92.2393   11.1877 C.ar    1  UNL1        0.1401
     22 F          65.9133   93.2636   10.9194 F       1  UNL1       -0.2042
     23 C          63.9899   91.7401   10.0655 C.ar    1  UNL1        0.0294
     24 C          62.9275   90.7157   10.3337 C.ar    1  UNL1       -0.0001
@<TRIPOS>BOND
     1    10    11    1
     2    11    12    1
     3    12    13    1
     4    13    14    1
     5    14    15    1
     6    15     1    1
     7     1     2   ar
     8     2     3   ar
     9     3     4   ar
    10     4     5   ar
    11     5     6   ar
    12     6     7   ar
    13     7     8   ar
    14     8     9   ar
    15     9    17    1
    16    17    18    1
    17    18    19   ar
    18    19    20   ar
    19    20    21   ar
    20    21    22    1
    21    21    23   ar
    22    23    24   ar
    23    15    16    1
    24    16    11    1
    25     9     1   ar
    26    24    18   ar
    27     8     3   ar
@<TRIPOS>MOLECULE
*****
 24 27 0 0 0
SMALL
GASTEIGER

@<TRIPOS>ATOM
      1 C          63.6834   90.6686   12.1808 C.ar    1  UNL1        0.1215
      2 N          62.5930   90.9202   11.1819 N.ar    1  UNL1       -0.2309
      3 C          61.8893   89.6204   10.9264 C.ar    1  UNL1        0.0983
      4 C          60.7364   89.2612   10.0367 C.ar    1  UNL1        0.0206
      5 C          60.2390   87.8470    9.9879 C.ar    1  UNL1        0.0016
      6 C          60.8945   86.7919   10.8288 C.ar    1  UNL1        0.0016
      7 C          62.0474   87.1511   11.7186 C.ar    1  UNL1        0.0188
      8 C          62.5448   88.5654   11.7674 C.ar    1  UNL1        0.0789
      9 N          63.6536   89.2132   12.5426 N.ar    1  UNL1       -0.3106
     10 C          66.3134   92.6992   16.1757 C.3     1  UNL1        0.0896
     11 N          65.9513   92.7079   14.7201 N.3     1  UNL1       -0.2711
     12 C          66.5420   93.7404   13.8064 C.3     1  UNL1        0.0722
     13 C          66.1798   93.7490   12.3508 C.3     1  UNL1        0.0178
     14 C          65.2269   92.7251   11.8090 C.3     1  UNL1        0.0103
     15 C          64.6363   91.6925   12.7226 C.3     1  UNL1        0.0729
     16 C          64.9984   91.6839   14.1782 C.3     1  UNL1        0.0796
     17 C          64.5715   88.5262   13.5099 C.3     1  UNL1        0.1339
     18 C          64.0378   88.0112   14.8136 C.ar    1  UNL1        0.0006
     19 C          64.0710   86.5409   15.1094 C.ar    1  UNL1       -0.0001
     20 C          63.5374   86.0259   16.4131 C.ar    1  UNL1        0.0294
     21 C          62.9704   86.9810   17.4213 C.ar    1  UNL1        0.1401
     22 F          62.4368   86.4659   18.7250 F       1  UNL1       -0.2042
     23 C          62.9372   88.4512   17.1255 C.ar    1  UNL1        0.0294
     24 C          63.4708   88.9663   15.8218 C.ar    1  UNL1       -0.0001
@<TRIPOS>BOND
     1    10    11    1
     2    11    12    1
     3    12    13    1
     4    13    14    1
     5    14    15    1
     6    15     1    1
     7     1     2   ar
     8     2     3   ar
     9     3     4   ar
    10     4     5   ar
    11     5     6   ar
    12     6     7   ar
    13     7     8   ar
    14     8     9   ar
    15     9    17    1
    16    17    18    1
    17    18    19   ar
    18    19    20   ar
    19    20    21   ar
    20    21    22    1
    21    21    23   ar
    22    23    24   ar
    23    15    16    1
    24    16    11    1
    25     9     1   ar
    26    24    18   ar
    27     8     3   ar
@<TRIPOS>MOLECULE
*****
 24 27 0 0 0
SMALL
GASTEIGER

@<TRIPOS>ATOM
      1 C          61.9114   89.4677   10.8190 C.ar    1  UNL1        0.1215
      2 N          61.3169   90.1826    9.6419 N.ar    1  UNL1       -0.2309
      3 C          60.4845   89.1990    8.8741 C.ar    1  UNL1        0.0983
      4 C          59.6640   89.3369    7.6260 C.ar    1  UNL1        0.0206
      5 C          58.9236   88.1520    7.0804 C.ar    1  UNL1        0.0016
      6 C          59.0036   86.8291    7.7829 C.ar    1  UNL1        0.0016
      7 C          59.8241   86.6911    9.0310 C.ar    1  UNL1        0.0188
      8 C          60.5645   87.8760    9.5766 C.ar    1  UNL1        0.0789
      9 N          61.4464   88.0421   10.7786 N.ar    1  UNL1       -0.3106
     10 C          63.4792   89.8328   15.7595 C.3     1  UNL1        0.0896
     11 N          63.5965   90.2547   14.3248 N.3     1  UNL1       -0.2711
     12 C          64.6150   91.2810   13.9257 C.3     1  UNL1        0.0722
     13 C          64.7323   91.7029   12.4911 C.3     1  UNL1        0.0178
     14 C          63.8311   91.0984   11.4555 C.3     1  UNL1        0.0103
     15 C          62.8126   90.0721   11.8545 C.3     1  UNL1        0.0729
     16 C          62.6953   89.6503   13.2892 C.3     1  UNL1        0.0796
     17 C          61.8010   86.9707   11.7667 C.3     1  UNL1        0.1339
     18 C          62.5016   85.7273   11.3056 C.ar    1  UNL1        0.0006
     19 C          62.7292   85.4937    9.8414 C.ar    1  UNL1       -0.0001
     20 C          63.4299   84.2502    9.3802 C.ar    1  UNL1        0.0294
     21 C          63.9030   83.2402   10.3832 C.ar    1  UNL1        0.1401
     22 F          64.6037   81.9967    9.9220 F       1  UNL1       -0.2042
     23 C          63.6755   83.4737   11.8473 C.ar    1  UNL1        0.0294
     24 C          62.9748   84.7172   12.3085 C.ar    1  UNL1       -0.0001
@<TRIPOS>BOND
     1    10    11    1
     2    11    12    1
     3    12    13    1
     4    13    14    1
     5    14    15    1
     6    15     1    1
     7     1     2   ar
     8     2     3   ar
     9     3     4   ar
    10     4     5   ar
    11     5     6   ar
    12     6     7   ar
    13     7     8   ar
    14     8     9   ar
    15     9    17    1
    16    17    18    1
    17    18    19   ar
    18    19    20   ar
    19    20    21   ar
    20    21    22    1
    21    21    23   ar
    22    23    24   ar
    23    15    16    1
    24    16    11    1
    25     9     1   ar
    26    24    18   ar
    27     8     3   ar
@<TRIPOS>MOLECULE
*****
 24 27 0 0 0
SMALL
GASTEIGER

@<TRIPOS>ATOM
      1 C          62.7100   85.7750   11.6749 C.ar    1  UNL1        0.1215
      2 N          61.8889   86.5005   10.6505 N.ar    1  UNL1       -0.2309
      3 C          62.0557   87.9733   10.8810 C.ar    1  UNL1        0.0983
      4 C          61.4855   89.1699   10.1790 C.ar    1  UNL1        0.0206
      5 C          61.8394   90.5514   10.6441 C.ar    1  UNL1        0.0016
      6 C          62.7636   90.7361   11.8110 C.ar    1  UNL1        0.0016
      7 C          63.3338   89.5395   12.5130 C.ar    1  UNL1        0.0188
      8 C          62.9799   88.1580   12.0479 C.ar    1  UNL1        0.0789
      9 N          63.3842   86.7994   12.5386 N.ar    1  UNL1       -0.3106
     10 C          61.8319   81.4133   14.3591 C.3     1  UNL1        0.0896
     11 N          62.3958   82.1056   13.1537 N.3     1  UNL1       -0.2711
     12 C          63.0846   81.3094   12.0853 C.3     1  UNL1        0.0722
     13 C          63.6485   82.0018   10.8800 C.3     1  UNL1        0.0178
     14 C          63.5236   83.4903   10.7433 C.3     1  UNL1        0.0103
     15 C          62.8348   84.2865   11.8117 C.3     1  UNL1        0.0729
     16 C          62.2709   83.5941   13.0170 C.3     1  UNL1        0.0796
     17 C          64.3017   86.5152   13.6908 C.3     1  UNL1        0.1339
     18 C          63.8144   86.6900   15.0985 C.ar    1  UNL1        0.0006
     19 C          63.4877   85.4877   15.9339 C.ar    1  UNL1       -0.0001
     20 C          63.0003   85.6625   17.3417 C.ar    1  UNL1        0.0294
     21 C          62.8396   87.0397   17.9141 C.ar    1  UNL1        0.1401
     22 F          62.3522   87.2145   19.3219 F       1  UNL1       -0.2042
     23 C          63.1662   88.2419   17.0788 C.ar    1  UNL1        0.0294
     24 C          63.6536   88.0671   15.6710 C.ar    1  UNL1       -0.0001
@<TRIPOS>BOND
     1    10    11    1
     2    11    12    1
     3    12    13    1
     4    13    14    1
     5    14    15    1
     6    15     1    1
     7     1     2   ar
     8     2     3   ar
     9     3     4   ar
    10     4     5   ar
    11     5     6   ar
    12     6     7   ar
    13     7     8   ar
    14     8     9   ar
    15     9    17    1
    16    17    18    1
    17    18    19   ar
    18    19    20   ar
    19    20    21   ar
    20    21    22    1
    21    21    23   ar
    22    23    24   ar
    23    15    16    1
    24    16    11    1
    25     9     1   ar
    26    24    18   ar
    27     8     3   ar
