@<TRIPOS>MOLECULE
*****
 50 54 0 0 0
SMALL
GASTEIGER

@<TRIPOS>ATOM
      1 C          59.9184   94.4943   -0.0894 C.3     1  UNL1        0.1205
      2 N          58.8502   94.2956   -1.1235 N.am    1  UNL1       -0.2737
      3 C          58.2949   95.4757   -1.8646 C.2     1  UNL1        0.2506
      4 O          58.8079   96.8544   -1.5715 O.2     1  UNL1       -0.2699
      5 C          58.3373   92.9168   -1.4167 C.3     1  UNL1        0.0939
      6 C          58.8925   91.7367   -0.6757 C.3     1  UNL1        0.0257
      7 C          59.9606   91.9354    0.3585 C.3     1  UNL1        0.0525
      8 C          60.4736   93.3142    0.6516 C.3     1  UNL1        0.2169
      9 C          61.3075   92.5168    1.6101 C.2     1  UNL1        0.2635
     10 O          62.1440   92.2253    1.6028 O.2     1  UNL1       -0.2711
     11 N          60.7168   92.0453    2.9057 N.am    1  UNL1       -0.2765
     12 C          59.2920   92.3713    3.2430 C.3     1  UNL1        0.0972
     13 C          58.7012   91.8998    4.5385 C.3     1  UNL1        0.0651
     14 C          59.5351   91.1024    5.4970 C.3     1  UNL1        0.1710
     15 C          60.9600   90.7764    5.1597 C.3     1  UNL1        0.0651
     16 C          61.5508   91.2478    3.8642 C.3     1  UNL1        0.0972
     17 O          58.9444   90.6309    6.7926 O.3     1  UNL1       -0.4639
     18 C          59.4981   89.4124    7.4699 C.ar    1  UNL1        0.2247
     19 C          59.1060   88.0456    6.9922 C.ar    1  UNL1        0.0577
     20 C          59.6597   86.8270    7.6695 C.ar    1  UNL1        0.0064
     21 C          60.6054   86.9753    8.8243 C.ar    1  UNL1        0.0205
     22 CA         60.9974   88.3420    9.3019 C.ar    1  UNL1        0.0983
     23 N          60.4437   89.5606    8.6247 N.ar    1  UNL1       -0.2105
     24 C          61.9431   88.4904   10.4567 C.2     1  UNL1        0.0906
     25 O          62.6631   89.7881   10.6747 O.co2   1  UNL1       -0.5430
     26 OXT        62.1689   87.3409   11.3937 O.co2   1  UNL1       -0.5430
     27 C          57.2268   95.2770   -2.8988 C.ar    1  UNL1        0.0766
     28 C          55.7836   95.4535   -2.5299 C.ar    1  UNL1        0.1033
     29 N          54.7154   95.2548   -3.5642 N.ar    1  UNL1       -0.2422
     30 C          55.0904   94.8795   -4.9672 C.ar    1  UNL1        0.0988
     31 C          56.5336   94.7030   -5.3360 C.ar    1  UNL1        0.0247
     32 C          57.6018   94.9017   -4.3019 C.ar    1  UNL1        0.0788
     33 C          59.0450   94.7251   -4.6707 C.3     1  UNL1        0.4188
     34 F          60.4881   94.5485   -5.0396 F       1  UNL1       -0.1659
     35 F          58.8276   93.2479   -4.8142 F       1  UNL1       -0.1659
     36 F          59.2624   96.2023   -4.5273 F       1  UNL1       -0.1659
     37 C          60.4313   95.8730    0.2038 C.3     1  UNL1        0.0239
     38 C          60.1394   96.8551    2.5913 C.3     1  UNL1        0.0001
     39 C          59.6932   96.7597    1.1624 C.3     1  UNL1        0.0018
     40 O          61.2762   94.4160    1.2777 O.3     1  UNL1       -0.4723
     41 C          62.5282   94.9039    0.6111 C.ar    1  UNL1        0.1390
     42 C          62.8974   94.3994   -0.7525 C.ar    1  UNL1        0.0369
     43 C          64.1494   94.8873   -1.4190 C.ar    1  UNL1        0.0070
     44 C          65.0323   95.8797   -0.7220 C.ar    1  UNL1        0.0716
     45 C          64.6631   96.3841    0.6415 C.ar    1  UNL1        0.0070
     46 C          63.4111   95.8962    1.3081 C.ar    1  UNL1        0.0369
     47 C          66.2844   96.3676   -1.3885 C.3     1  UNL1        0.4186
     48 F          67.5364   96.8555   -2.0551 F       1  UNL1       -0.1659
     49 F          66.9005   96.6222   -0.0448 F       1  UNL1       -0.1659
     50 F          65.6682   96.1130   -2.7322 F       1  UNL1       -0.1659
@<TRIPOS>UNITY_ATOM_ATTR
25 1
charge -1
@<TRIPOS>BOND
     1    38    39    1
     2    39    37    1
     3     1    37    1
     4     1     2    1
     5     2     3   am
     6     3     4    2
     7     3    27    1
     8    27    28   ar
     9    28    29   ar
    10    29    30   ar
    11    30    31   ar
    12    31    32   ar
    13    32    33    1
    14    33    34    1
    15    33    35    1
    16    33    36    1
    17     2     5    1
    18     5     6    1
    19     6     7    1
    20     7     8    1
    21     8    40    1
    22    40    41    1
    23    41    42   ar
    24    42    43   ar
    25    43    44   ar
    26    44    47    1
    27    47    48    1
    28    47    49    1
    29    47    50    1
    30    44    45   ar
    31    45    46   ar
    32     8     9    1
    33     9    10    2
    34     9    11   am
    35    11    12    1
    36    12    13    1
    37    13    14    1
    38    14    17    1
    39    17    18    1
    40    18    19   ar
    41    19    20   ar
    42    20    21   ar
    43    21    22   ar
    44    22    24    1
    45    24    25   ar
    46    24    26   ar
    47    22    23   ar
    48    14    15    1
    49    15    16    1
    50     8     1    1
    51    46    41   ar
    52    16    11    1
    53    32    27   ar
    54    23    18   ar
@<TRIPOS>MOLECULE
*****
 50 54 0 0 0
SMALL
GASTEIGER

@<TRIPOS>ATOM
      1 C          64.5656   92.1304   12.7311 C.3     1  UNL1        0.1205
      2 N          65.0594   92.8870   11.5337 N.am    1  UNL1       -0.2737
      3 C          66.2507   93.7903   11.6562 C.2     1  UNL1        0.2506
      4 O          66.9481   93.9369   12.9761 O.2     1  UNL1       -0.2699
      5 C          64.3620   92.7403   10.2138 C.3     1  UNL1        0.0939
      6 C          63.1707   91.8371   10.0913 C.3     1  UNL1        0.0257
      7 C          62.6769   91.0805   11.2887 C.3     1  UNL1        0.0525
      8 C          63.3743   91.2272   12.6085 C.3     1  UNL1        0.2169
      9 C          62.2951   90.2580   12.9904 C.2     1  UNL1        0.2635
     10 O          61.6545   90.2600   13.6022 O.2     1  UNL1       -0.2711
     11 N          62.1587   88.9586   12.2536 N.am    1  UNL1       -0.2765
     12 C          63.1017   88.6284   11.1347 C.3     1  UNL1        0.0972
     13 C          62.9654   87.3291   10.3978 C.3     1  UNL1        0.0651
     14 C          61.8861   86.3599   10.7797 C.3     1  UNL1        0.1710
     15 C          60.9432   86.6901   11.8986 C.3     1  UNL1        0.0651
     16 C          61.0795   87.9894   12.6355 C.3     1  UNL1        0.0972
     17 O          61.7498   85.0605   10.0428 O.3     1  UNL1       -0.4639
     18 C          62.5273   83.8588   10.4914 C.ar    1  UNL1        0.2247
     19 C          63.7267   83.4076    9.7117 C.ar    1  UNL1        0.0577
     20 C          64.5043   82.2058   10.1603 C.ar    1  UNL1        0.0064
     21 C          64.0825   81.4553   11.3886 C.ar    1  UNL1        0.0205
     22 CA         62.8831   81.9064   12.1683 C.ar    1  UNL1        0.0983
     23 N          62.1055   83.1082   11.7197 N.ar    1  UNL1       -0.2105
     24 C          62.4612   81.1559   13.3966 C.2     1  UNL1        0.0906
     25 O          61.0114   81.0928   13.7761 O.co2   1  UNL1       -0.5430
     26 OXT        63.4893   80.4685   14.2455 O.co2   1  UNL1       -0.5430
     27 C          66.7446   94.5468   10.4589 C.ar    1  UNL1        0.0766
     28 C          66.3125   95.9662   10.2380 C.ar    1  UNL1        0.1033
     29 N          66.8064   96.7227    9.0405 N.ar    1  UNL1       -0.2422
     30 C          67.7323   96.0599    8.0641 C.ar    1  UNL1        0.0988
     31 C          68.1643   94.6406    8.2851 C.ar    1  UNL1        0.0247
     32 C          67.6705   93.8840    9.4824 C.ar    1  UNL1        0.0788
     33 C          68.1025   92.4647    9.7033 C.3     1  UNL1        0.4188
     34 F          68.5346   91.0454    9.9243 F       1  UNL1       -0.1659
     35 F          66.7050   91.9960    9.4254 F       1  UNL1       -0.1659
     36 F          69.5001   92.9334    9.9813 F       1  UNL1       -0.1659
     37 C          65.2630   92.2771   14.0510 C.3     1  UNL1        0.0239
     38 C          67.3452   91.8306   15.5392 C.3     1  UNL1        0.0001
     39 C          66.5329   91.5241   14.3160 C.3     1  UNL1        0.0018
     40 O          63.6968   91.0372   14.0611 O.3     1  UNL1       -0.4723
     41 C          63.7350   89.6567   14.6466 C.ar    1  UNL1        0.1390
     42 C          63.1095   89.3918   15.9840 C.ar    1  UNL1        0.0369
     43 C          63.1477   88.0113   16.5695 C.ar    1  UNL1        0.0070
     44 C          63.8113   86.8958   15.8177 C.ar    1  UNL1        0.0716
     45 C          64.4369   87.1608   14.4803 C.ar    1  UNL1        0.0070
     46 C          64.3987   88.5412   13.8948 C.ar    1  UNL1        0.0369
     47 C          63.8496   85.5154   16.4032 C.3     1  UNL1        0.4186
     48 F          63.8878   84.1349   16.9886 F       1  UNL1       -0.1659
     49 F          63.1326   86.0129   17.6232 F       1  UNL1       -0.1659
     50 F          64.5665   85.0179   15.1832 F       1  UNL1       -0.1659
@<TRIPOS>UNITY_ATOM_ATTR
25 1
charge -1
@<TRIPOS>BOND
     1    38    39    1
     2    39    37    1
     3     1    37    1
     4     1     2    1
     5     2     3   am
     6     3     4    2
     7     3    27    1
     8    27    28   ar
     9    28    29   ar
    10    29    30   ar
    11    30    31   ar
    12    31    32   ar
    13    32    33    1
    14    33    34    1
    15    33    35    1
    16    33    36    1
    17     2     5    1
    18     5     6    1
    19     6     7    1
    20     7     8    1
    21     8    40    1
    22    40    41    1
    23    41    42   ar
    24    42    43   ar
    25    43    44   ar
    26    44    47    1
    27    47    48    1
    28    47    49    1
    29    47    50    1
    30    44    45   ar
    31    45    46   ar
    32     8     9    1
    33     9    10    2
    34     9    11   am
    35    11    12    1
    36    12    13    1
    37    13    14    1
    38    14    17    1
    39    17    18    1
    40    18    19   ar
    41    19    20   ar
    42    20    21   ar
    43    21    22   ar
    44    22    24    1
    45    24    25   ar
    46    24    26   ar
    47    22    23   ar
    48    14    15    1
    49    15    16    1
    50     8     1    1
    51    46    41   ar
    52    16    11    1
    53    32    27   ar
    54    23    18   ar
@<TRIPOS>MOLECULE
*****
 50 54 0 0 0
SMALL
GASTEIGER

@<TRIPOS>ATOM
      1 C          64.5363   91.9447   12.5878 C.3     1  UNL1        0.1205
      2 N          65.1442   92.5940   11.3800 N.am    1  UNL1       -0.2737
      3 C          66.3834   93.4276   11.5204 C.2     1  UNL1        0.2506
      4 O          67.0145   93.6119   12.8687 O.2     1  UNL1       -0.2699
      5 C          64.5131   92.4097   10.0318 C.3     1  UNL1        0.0939
      6 C          63.2740   91.5761    9.8913 C.3     1  UNL1        0.0257
      7 C          62.6661   90.9268   11.0991 C.3     1  UNL1        0.0525
      8 C          63.2972   91.1111   12.4473 C.3     1  UNL1        0.2169
      9 C          62.1374   90.2359   12.8200 C.2     1  UNL1        0.2635
     10 O          61.4511   90.3260   13.3728 O.2     1  UNL1       -0.2711
     11 N          61.9865   88.8825   12.1911 N.am    1  UNL1       -0.2765
     12 C          62.9954   88.4043   11.1894 C.3     1  UNL1        0.0972
     13 C          62.8446   87.0509   10.5605 C.3     1  UNL1        0.0651
     14 C          61.6848   86.1757   10.9332 C.3     1  UNL1        0.1710
     15 C          60.6758   86.6540   11.9349 C.3     1  UNL1        0.0651
     16 C          60.8267   88.0073   12.5638 C.3     1  UNL1        0.0972
     17 O          61.5338   84.8223   10.3043 O.3     1  UNL1       -0.4639
     18 C          62.4198   83.6916   10.7363 C.ar    1  UNL1        0.2247
     19 C          63.6559   83.3655    9.9516 C.ar    1  UNL1        0.0577
     20 C          64.5419   82.2348   10.3835 C.ar    1  UNL1        0.0064
     21 C          64.1919   81.4303   11.6001 C.ar    1  UNL1        0.0205
     22 CA         62.9558   81.7564   12.3848 C.ar    1  UNL1        0.0983
     23 N          62.0698   82.8871   11.9528 N.ar    1  UNL1       -0.2105
     24 C          62.6057   80.9519   13.6014 C.2     1  UNL1        0.0906
     25 O          61.1782   80.8560   14.0519 O.co2   1  UNL1       -0.5430
     26 OXT        63.6832   80.2432   14.3675 O.co2   1  UNL1       -0.5430
     27 C          66.9913   94.0770   10.3127 C.ar    1  UNL1        0.0766
     28 C          68.0628   93.3674    9.5390 C.ar    1  UNL1        0.1033
     29 N          68.6707   94.0168    8.3312 N.ar    1  UNL1       -0.2422
     30 C          68.2072   95.3757    7.8971 C.ar    1  UNL1        0.0988
     31 C          67.1358   96.0853    8.6707 C.ar    1  UNL1        0.0247
     32 C          66.5278   95.4359    9.8785 C.ar    1  UNL1        0.0788
     33 C          65.4564   96.1455   10.6521 C.3     1  UNL1        0.4188
     34 F          64.3849   96.8551   11.4258 F       1  UNL1       -0.1659
     35 F          64.4179   95.5910    9.7225 F       1  UNL1       -0.1659
     36 F          66.4948   96.7000   11.5817 F       1  UNL1       -0.1659
     37 C          65.1674   92.1289   13.9360 C.3     1  UNL1        0.0239
     38 C          67.2469   91.8329   15.4651 C.3     1  UNL1        0.0001
     39 C          66.4408   91.4112   14.2724 C.3     1  UNL1        0.0018
     40 O          63.5255   90.9914   13.9250 O.3     1  UNL1       -0.4723
     41 C          63.6130   89.6367   14.5631 C.ar    1  UNL1        0.1390
     42 C          63.0382   89.4132   15.9305 C.ar    1  UNL1        0.0369
     43 C          63.1257   88.0585   16.5685 C.ar    1  UNL1        0.0070
     44 C          63.7881   86.9274   15.8394 C.ar    1  UNL1        0.0716
     45 C          64.3629   87.1509   14.4720 C.ar    1  UNL1        0.0070
     46 C          64.2754   88.5055   13.8338 C.ar    1  UNL1        0.0369
     47 C          63.8757   85.5727   16.4774 C.3     1  UNL1        0.4186
     48 F          63.9632   84.2180   17.1155 F       1  UNL1       -0.1659
     49 F          64.6103   85.0545   15.2767 F       1  UNL1       -0.1659
     50 F          63.1410   86.0908   17.6782 F       1  UNL1       -0.1659
@<TRIPOS>UNITY_ATOM_ATTR
25 1
charge -1
@<TRIPOS>BOND
     1    38    39    1
     2    39    37    1
     3     1    37    1
     4     1     2    1
     5     2     3   am
     6     3     4    2
     7     3    27    1
     8    27    28   ar
     9    28    29   ar
    10    29    30   ar
    11    30    31   ar
    12    31    32   ar
    13    32    33    1
    14    33    34    1
    15    33    35    1
    16    33    36    1
    17     2     5    1
    18     5     6    1
    19     6     7    1
    20     7     8    1
    21     8    40    1
    22    40    41    1
    23    41    42   ar
    24    42    43   ar
    25    43    44   ar
    26    44    47    1
    27    47    48    1
    28    47    49    1
    29    47    50    1
    30    44    45   ar
    31    45    46   ar
    32     8     9    1
    33     9    10    2
    34     9    11   am
    35    11    12    1
    36    12    13    1
    37    13    14    1
    38    14    17    1
    39    17    18    1
    40    18    19   ar
    41    19    20   ar
    42    20    21   ar
    43    21    22   ar
    44    22    24    1
    45    24    25   ar
    46    24    26   ar
    47    22    23   ar
    48    14    15    1
    49    15    16    1
    50     8     1    1
    51    46    41   ar
    52    16    11    1
    53    32    27   ar
    54    23    18   ar
@<TRIPOS>MOLECULE
*****
 50 54 0 0 0
SMALL
GASTEIGER

@<TRIPOS>ATOM
      1 C          62.9922   87.4661   12.9230 C.3     1  UNL1        0.1205
      2 N          63.1059   85.9838   12.7242 N.am    1  UNL1       -0.2737
      3 C          64.1289   85.2003   13.4921 C.2     1  UNL1        0.2506
      4 O          65.0383   85.8992   14.4588 O.2     1  UNL1       -0.2699
      5 C          62.1965   85.2848   11.7575 C.3     1  UNL1        0.0939
      6 C          61.1735   86.0682   10.9896 C.3     1  UNL1        0.0257
      7 C          61.0598   87.5506   11.1884 C.3     1  UNL1        0.0525
      8 C          61.9692   88.2495   12.1552 C.3     1  UNL1        0.2169
      9 C          61.1650   89.4165   11.6637 C.2     1  UNL1        0.2635
     10 O          60.8823   90.1692   12.0354 O.2     1  UNL1       -0.2711
     11 N          60.6664   89.4413   10.2492 N.am    1  UNL1       -0.2765
     12 C          60.9720   88.2992    9.3261 C.3     1  UNL1        0.0972
     13 C          60.4735   88.3240    7.9117 C.3     1  UNL1        0.0651
     14 C          59.6693   89.4909    7.4202 C.3     1  UNL1        0.1710
     15 C          59.3636   90.6330    8.3434 C.3     1  UNL1        0.0651
     16 C          59.8622   90.6083    9.7578 C.3     1  UNL1        0.0972
     17 O          59.1707   89.5158    6.0058 O.3     1  UNL1       -0.4639
     18 C          59.5995   90.6142    5.0786 C.ar    1  UNL1        0.2247
     19 C          58.6216   91.6761    4.6711 C.ar    1  UNL1        0.0577
     20 C          59.0504   92.7746    3.7440 C.ar    1  UNL1        0.0064
     21 C          60.4570   92.8112    3.2244 C.ar    1  UNL1        0.0205
     22 CA         61.4349   91.7493    3.6319 C.ar    1  UNL1        0.0983
     23 N          61.0061   90.6508    4.5591 N.ar    1  UNL1       -0.2105
     24 C          62.8416   91.7857    3.1124 C.2     1  UNL1        0.0906
     25 O          63.8235   90.7320    3.5314 O.co2   1  UNL1       -0.5430
     26 OXT        63.2664   92.8760    2.1738 O.co2   1  UNL1       -0.5430
     27 C          64.2426   83.7179   13.2932 C.ar    1  UNL1        0.0766
     28 C          64.9865   83.1748   12.1093 C.ar    1  UNL1        0.1033
     29 N          65.1002   81.6923   11.9105 N.ar    1  UNL1       -0.2422
     30 C          64.4699   80.7530   12.8956 C.ar    1  UNL1        0.0988
     31 C          63.7259   81.2961   14.0795 C.ar    1  UNL1        0.0247
     32 C          63.6123   82.7785   14.2783 C.ar    1  UNL1        0.0788
     33 C          62.8683   83.3215   15.4622 C.3     1  UNL1        0.4188
     34 F          62.1243   83.8646   16.6461 F       1  UNL1       -0.1659
     35 F          64.1672   83.5290   16.1833 F       1  UNL1       -0.1659
     36 F          61.5694   83.1141   14.7412 F       1  UNL1       -0.1659
     37 C          63.9016   88.1651   13.8897 C.3     1  UNL1        0.0239
     38 C          63.4942   89.4341   16.1199 C.3     1  UNL1        0.0001
     39 C          63.5930   88.1461   15.3575 C.3     1  UNL1        0.0018
     40 O          62.5992   89.3538   12.9512 O.3     1  UNL1       -0.4723
     41 C          63.4738   90.3645   12.2703 C.ar    1  UNL1        0.1390
     42 C          64.3979   91.2241   13.0810 C.ar    1  UNL1        0.0369
     43 C          65.2725   92.2347   12.4001 C.ar    1  UNL1        0.0070
     44 C          65.2229   92.3859   10.9086 C.ar    1  UNL1        0.0716
     45 C          64.2988   91.5264   10.0979 C.ar    1  UNL1        0.0070
     46 C          63.4242   90.5157   10.7787 C.ar    1  UNL1        0.0369
     47 C          66.0975   93.3966   10.2277 C.3     1  UNL1        0.4186
     48 F          66.9720   94.4073    9.5467 F       1  UNL1       -0.1659
     49 F          67.1146   92.3296    9.9501 F       1  UNL1       -0.1659
     50 F          65.0804   94.4636   10.5052 F       1  UNL1       -0.1659
@<TRIPOS>UNITY_ATOM_ATTR
25 1
charge -1
@<TRIPOS>BOND
     1    38    39    1
     2    39    37    1
     3     1    37    1
     4     1     2    1
     5     2     3   am
     6     3     4    2
     7     3    27    1
     8    27    28   ar
     9    28    29   ar
    10    29    30   ar
    11    30    31   ar
    12    31    32   ar
    13    32    33    1
    14    33    34    1
    15    33    35    1
    16    33    36    1
    17     2     5    1
    18     5     6    1
    19     6     7    1
    20     7     8    1
    21     8    40    1
    22    40    41    1
    23    41    42   ar
    24    42    43   ar
    25    43    44   ar
    26    44    47    1
    27    47    48    1
    28    47    49    1
    29    47    50    1
    30    44    45   ar
    31    45    46   ar
    32     8     9    1
    33     9    10    2
    34     9    11   am
    35    11    12    1
    36    12    13    1
    37    13    14    1
    38    14    17    1
    39    17    18    1
    40    18    19   ar
    41    19    20   ar
    42    20    21   ar
    43    21    22   ar
    44    22    24    1
    45    24    25   ar
    46    24    26   ar
    47    22    23   ar
    48    14    15    1
    49    15    16    1
    50     8     1    1
    51    46    41   ar
    52    16    11    1
    53    32    27   ar
    54    23    18   ar
@<TRIPOS>MOLECULE
*****
 50 54 0 0 0
SMALL
GASTEIGER

@<TRIPOS>ATOM
      1 C          63.5859   89.2408   12.8708 C.3     1  UNL1        0.1205
      2 N          64.0948   90.6291   12.6185 N.am    1  UNL1       -0.2737
      3 C          65.2509   91.1601   13.4133 C.2     1  UNL1        0.2506
      4 O          65.8979   90.3028   14.4604 O.2     1  UNL1       -0.2699
      5 C          63.4478   91.4864   11.5714 C.3     1  UNL1        0.0939
      6 C          62.2918   90.9554   10.7766 C.3     1  UNL1        0.0257
      7 C          61.7828   89.5672   11.0289 C.3     1  UNL1        0.0525
      8 C          62.4299   88.7099   12.0760 C.3     1  UNL1        0.2169
      9 C          61.3708   87.7676   11.5858 C.2     1  UNL1        0.2635
     10 O          60.9945   87.0379   11.9184 O.2     1  UNL1       -0.2711
     11 N          60.7226   87.9958   10.2525 N.am    1  UNL1       -0.2765
     12 C          61.1335   89.1664    9.4094 C.3     1  UNL1        0.0972
     13 C          60.4853   89.3947    8.0761 C.3     1  UNL1        0.0651
     14 C          59.4263   88.4524    7.5858 C.3     1  UNL1        0.1710
     15 C          59.0154   87.2817    8.4289 C.3     1  UNL1        0.0651
     16 C          59.6635   87.0534    9.7622 C.3     1  UNL1        0.0972
     17 O          58.7781   88.6806    6.2525 O.3     1  UNL1       -0.4639
     18 C          58.9607   89.9902    5.5441 C.ar    1  UNL1        0.2247
     19 C          57.8350   90.9803    5.4961 C.ar    1  UNL1        0.0577
     20 C          58.0177   92.2899    4.7877 C.ar    1  UNL1        0.0064
     21 C          59.3260   92.6092    4.1274 C.ar    1  UNL1        0.0205
     22 CA         60.4518   91.6191    4.1754 C.ar    1  UNL1        0.0983
     23 N          60.2691   90.3096    4.8838 N.ar    1  UNL1       -0.2105
     24 C          61.7602   91.9384    3.5151 C.2     1  UNL1        0.0906
     25 O          61.8229   92.9830    2.4404 O.co2   1  UNL1       -0.5430
     26 OXT        63.0061   91.2131    3.9296 O.co2   1  UNL1       -0.5430
     27 C          65.7599   92.5483   13.1609 C.ar    1  UNL1        0.0766
     28 C          65.5942   93.1734   11.8075 C.ar    1  UNL1        0.1033
     29 N          66.1032   94.5617   11.5552 N.ar    1  UNL1       -0.2422
     30 C          66.7779   95.3248   12.6563 C.ar    1  UNL1        0.0988
     31 C          66.9436   94.6997   14.0097 C.ar    1  UNL1        0.0247
     32 C          66.4346   93.3115   14.2621 C.ar    1  UNL1        0.0788
     33 C          66.6003   92.6864   15.6155 C.3     1  UNL1        0.4188
     34 F          66.7659   92.0612   16.9689 F       1  UNL1       -0.1659
     35 F          68.0529   92.4479   15.3275 F       1  UNL1       -0.1659
     36 F          65.1476   92.9249   15.9035 F       1  UNL1       -0.1659
     37 C          64.2329   88.3836   13.9179 C.3     1  UNL1        0.0239
     38 C          63.2910   89.6430   15.9858 C.3     1  UNL1        0.0001
     39 C          63.6833   88.3609   15.3134 C.3     1  UNL1        0.0018
     40 O          62.7090   87.5253   12.9528 O.3     1  UNL1       -0.4723
     41 C          62.9221   86.1726   12.3406 C.ar    1  UNL1        0.1390
     42 C          62.9990   86.0278   10.8496 C.ar    1  UNL1        0.0369
     43 C          63.2120   84.6751   10.2375 C.ar    1  UNL1        0.0070
     44 C          63.3481   83.4672   11.1163 C.ar    1  UNL1        0.0716
     45 C          63.2712   83.6119   12.6073 C.ar    1  UNL1        0.0070
     46 C          63.0582   84.9646   13.2195 C.ar    1  UNL1        0.0369
     47 C          63.5611   82.1144   10.5042 C.3     1  UNL1        0.4186
     48 F          63.7743   80.7617    9.8920 F       1  UNL1       -0.1659
     49 F          62.4897   81.5462   11.3868 F       1  UNL1       -0.1659
     50 F          64.6326   82.6827    9.6216 F       1  UNL1       -0.1659
@<TRIPOS>UNITY_ATOM_ATTR
25 1
charge -1
@<TRIPOS>BOND
     1    38    39    1
     2    39    37    1
     3     1    37    1
     4     1     2    1
     5     2     3   am
     6     3     4    2
     7     3    27    1
     8    27    28   ar
     9    28    29   ar
    10    29    30   ar
    11    30    31   ar
    12    31    32   ar
    13    32    33    1
    14    33    34    1
    15    33    35    1
    16    33    36    1
    17     2     5    1
    18     5     6    1
    19     6     7    1
    20     7     8    1
    21     8    40    1
    22    40    41    1
    23    41    42   ar
    24    42    43   ar
    25    43    44   ar
    26    44    47    1
    27    47    48    1
    28    47    49    1
    29    47    50    1
    30    44    45   ar
    31    45    46   ar
    32     8     9    1
    33     9    10    2
    34     9    11   am
    35    11    12    1
    36    12    13    1
    37    13    14    1
    38    14    17    1
    39    17    18    1
    40    18    19   ar
    41    19    20   ar
    42    20    21   ar
    43    21    22   ar
    44    22    24    1
    45    24    25   ar
    46    24    26   ar
    47    22    23   ar
    48    14    15    1
    49    15    16    1
    50     8     1    1
    51    46    41   ar
    52    16    11    1
    53    32    27   ar
    54    23    18   ar
@<TRIPOS>MOLECULE
*****
 50 54 0 0 0
SMALL
GASTEIGER

@<TRIPOS>ATOM
      1 C          64.2446   90.9368   12.6224 C.3     1  UNL1        0.1205
      2 N          64.8073   92.0565   11.7981 N.am    1  UNL1       -0.2737
      3 C          65.9815   92.8422   12.3020 C.2     1  UNL1        0.2506
      4 O          66.5930   92.5082   13.6303 O.2     1  UNL1       -0.2699
      5 C          64.1957   92.3906   10.4697 C.3     1  UNL1        0.0939
      6 C          63.0215   91.6050    9.9658 C.3     1  UNL1        0.0257
      7 C          62.4589   90.4853   10.7901 C.3     1  UNL1        0.0525
      8 C          63.0704   90.1512   12.1185 C.3     1  UNL1        0.2169
      9 C          61.9766   89.1259   12.0700 C.2     1  UNL1        0.2635
     10 O          61.6526   88.5436   12.6536 O.2     1  UNL1       -0.2711
     11 N          61.1753   88.9427   10.8152 N.am    1  UNL1       -0.2765
     12 C          61.4679   89.7849    9.6089 C.3     1  UNL1        0.0972
     13 C          60.6666   89.6018    8.3542 C.3     1  UNL1        0.0651
     14 C          59.5729   88.5764    8.3057 C.3     1  UNL1        0.1710
     15 C          59.2803   87.7342    9.5120 C.3     1  UNL1        0.0651
     16 C          60.0816   87.9174   10.7667 C.3     1  UNL1        0.0972
     17 O          58.7716   88.3932    7.0509 O.3     1  UNL1       -0.4639
     18 C          58.4661   89.5736    6.1771 C.ar    1  UNL1        0.2247
     19 C          57.0448   90.0068    5.9719 C.ar    1  UNL1        0.0577
     20 C          56.7392   91.1872    5.0981 C.ar    1  UNL1        0.0064
     21 C          57.8550   91.9342    4.4296 C.ar    1  UNL1        0.0205
     22 CA         59.2763   91.5010    4.6349 C.ar    1  UNL1        0.0983
     23 N          59.5818   90.3206    5.5087 N.ar    1  UNL1       -0.2105
     24 C          60.3922   92.2480    3.9664 C.2     1  UNL1        0.0906
     25 O          60.1036   93.5156    3.2181 O.co2   1  UNL1       -0.5430
     26 OXT        61.7967   91.7273    4.0462 O.co2   1  UNL1       -0.5430
     27 C          66.5442   93.9619   11.4776 C.ar    1  UNL1        0.0766
     28 C          66.1614   95.3807   11.7787 C.ar    1  UNL1        0.1033
     29 N          66.7241   96.5004   10.9542 N.ar    1  UNL1       -0.2422
     30 C          67.6696   96.2013    9.8288 C.ar    1  UNL1        0.0988
     31 C          68.0524   94.7826    9.5278 C.ar    1  UNL1        0.0247
     32 C          67.4897   93.6629   10.3521 C.ar    1  UNL1        0.0788
     33 C          67.8725   92.2442   10.0511 C.3     1  UNL1        0.4188
     34 F          68.2553   90.8254    9.7501 F       1  UNL1       -0.1659
     35 F          68.2335   92.0358   11.4921 F       1  UNL1       -0.1659
     36 F          67.5116   92.4525    8.6102 F       1  UNL1       -0.1659
     37 C          64.8561   90.6028   13.9507 C.3     1  UNL1        0.0239
     38 C          63.7261   90.5778   16.2901 C.3     1  UNL1        0.0001
     39 C          64.4097   91.3280   15.1856 C.3     1  UNL1        0.0018
     40 O          63.3020   89.4610   13.4299 O.3     1  UNL1       -0.4723
     41 C          63.5781   87.9870   13.4633 C.ar    1  UNL1        0.1390
     42 C          63.1702   87.1212   12.3083 C.ar    1  UNL1        0.0369
     43 C          63.4464   85.6472   12.3418 C.ar    1  UNL1        0.0070
     44 C          64.1304   85.0391   13.5302 C.ar    1  UNL1        0.0716
     45 C          64.5383   85.9049   14.6852 C.ar    1  UNL1        0.0070
     46 C          64.2621   87.3789   14.6518 C.ar    1  UNL1        0.0369
     47 C          64.4065   83.5651   13.5637 C.3     1  UNL1        0.4186
     48 F          64.6827   82.0912   13.5971 F       1  UNL1       -0.1659
     49 F          64.0769   83.5365   15.0267 F       1  UNL1       -0.1659
     50 F          64.7361   83.5937   12.1006 F       1  UNL1       -0.1659
@<TRIPOS>UNITY_ATOM_ATTR
25 1
charge -1
@<TRIPOS>BOND
     1    38    39    1
     2    39    37    1
     3     1    37    1
     4     1     2    1
     5     2     3   am
     6     3     4    2
     7     3    27    1
     8    27    28   ar
     9    28    29   ar
    10    29    30   ar
    11    30    31   ar
    12    31    32   ar
    13    32    33    1
    14    33    34    1
    15    33    35    1
    16    33    36    1
    17     2     5    1
    18     5     6    1
    19     6     7    1
    20     7     8    1
    21     8    40    1
    22    40    41    1
    23    41    42   ar
    24    42    43   ar
    25    43    44   ar
    26    44    47    1
    27    47    48    1
    28    47    49    1
    29    47    50    1
    30    44    45   ar
    31    45    46   ar
    32     8     9    1
    33     9    10    2
    34     9    11   am
    35    11    12    1
    36    12    13    1
    37    13    14    1
    38    14    17    1
    39    17    18    1
    40    18    19   ar
    41    19    20   ar
    42    20    21   ar
    43    21    22   ar
    44    22    24    1
    45    24    25   ar
    46    24    26   ar
    47    22    23   ar
    48    14    15    1
    49    15    16    1
    50     8     1    1
    51    46    41   ar
    52    16    11    1
    53    32    27   ar
    54    23    18   ar
@<TRIPOS>MOLECULE
*****
 50 54 0 0 0
SMALL
GASTEIGER

@<TRIPOS>ATOM
      1 C          59.8786   94.4800   -0.3690 C.3     1  UNL1        0.1205
      2 N          58.4939   94.5607   -0.9400 N.am    1  UNL1       -0.2737
      3 C          58.1173   95.7039   -1.8353 C.2     1  UNL1        0.2506
      4 O          59.1254   96.7662   -2.1596 O.2     1  UNL1       -0.2699
      5 C          57.4858   93.4984   -0.6157 C.3     1  UNL1        0.0939
      6 C          57.8624   92.3553    0.2795 C.3     1  UNL1        0.0257
      7 C          59.2471   92.2746    0.8505 C.3     1  UNL1        0.0525
      8 C          60.2552   93.3369    0.5262 C.3     1  UNL1        0.2169
      9 C          61.0816   92.4565    1.4162 C.2     1  UNL1        0.2635
     10 O          61.8857   92.0917    1.3458 O.2     1  UNL1       -0.2711
     11 N          60.5466   92.0237    2.7490 N.am    1  UNL1       -0.2765
     12 C          59.1852   92.4714    3.1919 C.3     1  UNL1        0.0972
     13 C          58.6501   92.0386    4.5247 C.3     1  UNL1        0.0651
     14 C          59.4765   91.1583    5.4147 C.3     1  UNL1        0.1710
     15 C          60.8380   90.7106    4.9718 C.3     1  UNL1        0.0651
     16 C          61.3730   91.1434    3.6390 C.3     1  UNL1        0.0972
     17 O          58.9415   90.7255    6.7475 O.3     1  UNL1       -0.4639
     18 C          59.4811   89.4911    7.4073 C.ar    1  UNL1        0.2247
     19 C          59.0223   88.1369    6.9540 C.ar    1  UNL1        0.0577
     20 C          59.5619   86.9025    7.6138 C.ar    1  UNL1        0.0064
     21 C          60.5603   87.0224    8.7268 C.ar    1  UNL1        0.0205
     22 CA         61.0191   88.3767    9.1800 C.ar    1  UNL1        0.0983
     23 N          60.4795   89.6110    8.5203 N.ar    1  UNL1       -0.2105
     24 C          62.0176   88.4967   10.2930 C.2     1  UNL1        0.0906
     25 O          62.9851   89.6428   10.3124 O.co2   1  UNL1       -0.5430
     26 OXT        62.0484   87.4706   11.3867 O.co2   1  UNL1       -0.5430
     27 C          56.7326   95.7847   -2.4062 C.ar    1  UNL1        0.0766
     28 C          55.6723   96.5711   -1.6939 C.ar    1  UNL1        0.1033
     29 N          54.2875   96.6518   -2.2649 N.ar    1  UNL1       -0.2422
     30 C          53.9631   95.9462   -3.5482 C.ar    1  UNL1        0.0988
     31 C          55.0234   95.1598   -4.2605 C.ar    1  UNL1        0.0247
     32 C          56.4081   95.0790   -3.6895 C.ar    1  UNL1        0.0788
     33 C          57.4683   94.2926   -4.4018 C.3     1  UNL1        0.4188
     34 F          58.5286   93.5061   -5.1141 F       1  UNL1       -0.1659
     35 F          58.1265   95.5699   -4.8324 F       1  UNL1       -0.1659
     36 F          56.8102   93.0153   -3.9713 F       1  UNL1       -0.1659
     37 C          60.8867   95.5423   -0.6933 C.3     1  UNL1        0.0239
     38 C          60.9672   96.7895    1.5843 C.3     1  UNL1        0.0001
     39 C          60.9031   96.8237    0.0861 C.3     1  UNL1        0.0018
     40 O          61.5504   94.0934    0.5110 O.3     1  UNL1       -0.4723
     41 C          62.4217   94.0645   -0.7096 C.ar    1  UNL1        0.1390
     42 C          63.7009   94.8474   -0.7367 C.ar    1  UNL1        0.0369
     43 C          64.5721   94.8185   -1.9573 C.ar    1  UNL1        0.0070
     44 C          64.1643   94.0067   -3.1509 C.ar    1  UNL1        0.0716
     45 C          62.8850   93.2238   -3.1239 C.ar    1  UNL1        0.0070
     46 C          62.0137   93.2527   -1.9032 C.ar    1  UNL1        0.0369
     47 C          65.0355   93.9778   -4.3716 C.3     1  UNL1        0.4186
     48 F          65.9068   93.9487   -5.5923 F       1  UNL1       -0.1659
     49 F          64.9422   95.4714   -4.4737 F       1  UNL1       -0.1659
     50 F          65.1288   92.4842   -4.2695 F       1  UNL1       -0.1659
@<TRIPOS>UNITY_ATOM_ATTR
25 1
charge -1
@<TRIPOS>BOND
     1    38    39    1
     2    39    37    1
     3     1    37    1
     4     1     2    1
     5     2     3   am
     6     3     4    2
     7     3    27    1
     8    27    28   ar
     9    28    29   ar
    10    29    30   ar
    11    30    31   ar
    12    31    32   ar
    13    32    33    1
    14    33    34    1
    15    33    35    1
    16    33    36    1
    17     2     5    1
    18     5     6    1
    19     6     7    1
    20     7     8    1
    21     8    40    1
    22    40    41    1
    23    41    42   ar
    24    42    43   ar
    25    43    44   ar
    26    44    47    1
    27    47    48    1
    28    47    49    1
    29    47    50    1
    30    44    45   ar
    31    45    46   ar
    32     8     9    1
    33     9    10    2
    34     9    11   am
    35    11    12    1
    36    12    13    1
    37    13    14    1
    38    14    17    1
    39    17    18    1
    40    18    19   ar
    41    19    20   ar
    42    20    21   ar
    43    21    22   ar
    44    22    24    1
    45    24    25   ar
    46    24    26   ar
    47    22    23   ar
    48    14    15    1
    49    15    16    1
    50     8     1    1
    51    46    41   ar
    52    16    11    1
    53    32    27   ar
    54    23    18   ar
