@<TRIPOS>MOLECULE
*****
 29 32 0 0 0
SMALL
GASTEIGER

@<TRIPOS>ATOM
      1 C          64.0505   91.2618   13.2800 C.3     1  UNL1        0.0518
      2 C          63.8106   89.7871   13.1457 C.ar    1  UNL1        0.0563
      3 N          64.3253   88.8451   14.1934 N.ar    1  UNL1       -0.2524
      4 C          64.0854   87.3705   14.0591 C.ar    1  UNL1        0.0830
      5 C          63.3309   86.8379   12.8772 C.ar    1  UNL1        0.0686
      6 C          62.8161   87.7799   11.8295 C.ar    1  UNL1        0.0048
      7 C          63.0560   89.2546   11.9638 C.ar    1  UNL1        0.0072
      8 C          63.2486   85.3464   13.0135 C.2     1  UNL1        0.2506
      9 O          62.5799   84.4088   12.0523 O.2     1  UNL1       -0.2699
     10 N          63.9523   84.9572   14.2797 N.am    1  UNL1       -0.2679
     11 C          64.4695   86.2081   14.9259 C.3     1  UNL1        0.1398
     12 C          62.0615   87.2474   10.6475 C.ar    1  UNL1        0.0106
     13 C          62.7964   86.5534    9.5393 C.ar    1  UNL1        0.0017
     14 C          62.0419   86.0209    8.3573 C.ar    1  UNL1        0.0114
     15 C          60.5525   86.1824    8.2836 C.ar    1  UNL1        0.0585
     16 CL         59.7980   85.6499    7.1016 Cl      1  UNL1       -0.0822
     17 C          59.8176   86.8764    9.3918 C.ar    1  UNL1        0.0228
     18 C          60.5721   87.4090   10.5738 C.ar    1  UNL1        0.0585
     19 CL         59.8372   88.1030   11.6821 Cl      1  UNL1       -0.0822
     20 C          62.5413   90.1967   10.9161 C.3     1  UNL1        0.0934
     21 N          61.2762   90.9661   11.1557 N.3     1  UNL1       -0.3174
     22 H          60.4890   90.3193   11.2052 H       1  UNL1        0.1192
     23 H          61.1281   91.6239   10.3903 H       1  UNL1        0.1192
     24 C          64.1110   83.5619   14.8070 C.3     1  UNL1        0.1235
     25 C          63.2334   82.4606   14.2906 C.3     1  UNL1        0.1351
     26 C          63.6497   81.3697   13.3489 C.3     1  UNL1        0.0339
     27 C          62.4590   80.4917   13.1014 C.3     1  UNL1        0.0346
     28 C          61.3068   81.0398   13.8901 C.3     1  UNL1        0.1422
     29 O          61.7854   82.2567   14.6251 O.3     1  UNL1       -0.3545
@<TRIPOS>BOND
     1     1     2    1
     2     2     3   ar
     3     3     4   ar
     4     4     5   ar
     5     5     6   ar
     6     6    12    1
     7    12    13   ar
     8    13    14   ar
     9    14    15   ar
    10    15    16    1
    11    15    17   ar
    12    17    18   ar
    13    18    19    1
    14     6     7   ar
    15     7    20    1
    16    20    21    1
    17     5     8    1
    18     8     9    2
    19     8    10   am
    20    10    24    1
    21    25    24    1
    22    25    26    1
    23    26    27    1
    24    27    28    1
    25    28    29    1
    26    10    11    1
    27     7     2   ar
    28    29    25    1
    29    11     4    1
    30    18    12   ar
    31    21    22    1
    32    21    23    1
@<TRIPOS>MOLECULE
*****
 29 32 0 0 0
SMALL
GASTEIGER

@<TRIPOS>ATOM
      1 C          58.9878   88.3221    7.2329 C.3     1  UNL1        0.0518
      2 C          59.9611   88.3329    8.3743 C.ar    1  UNL1        0.0563
      3 N          60.3186   89.6272    9.0428 N.ar    1  UNL1       -0.2524
      4 C          61.2918   89.6380   10.1841 C.ar    1  UNL1        0.0830
      5 C          61.9076   88.3546   10.6570 C.ar    1  UNL1        0.0686
      6 C          61.5500   87.0602    9.9885 C.ar    1  UNL1        0.0048
      7 C          60.5767   87.0494    8.8471 C.ar    1  UNL1        0.0072
      8 C          62.8286   88.6746   11.7968 C.2     1  UNL1        0.2506
      9 O          63.6516   87.6868   12.5694 O.2     1  UNL1       -0.2699
     10 N          62.7820   90.1559   12.0284 N.am    1  UNL1       -0.2679
     11 C          61.8323   90.7513   11.0317 C.3     1  UNL1        0.1398
     12 C          62.1657   85.7767   10.4613 C.ar    1  UNL1        0.0106
     13 C          61.8350   85.2436   11.8238 C.ar    1  UNL1        0.0017
     14 C          62.4506   83.9600   12.2967 C.ar    1  UNL1        0.0114
     15 C          63.3969   83.2098   11.4070 C.ar    1  UNL1        0.0585
     16 CL         64.0126   81.9262   11.8799 Cl      1  UNL1       -0.0822
     17 C          63.7276   83.7429   10.0446 C.ar    1  UNL1        0.0228
     18 C          63.1120   85.0264    9.5717 C.ar    1  UNL1        0.0585
     19 CL         63.4427   85.5596    8.2092 Cl      1  UNL1       -0.0822
     20 C          60.2192   85.7550    8.1786 C.3     1  UNL1        0.0934
     21 N          60.7305   85.4564    6.8005 N.3     1  UNL1       -0.3174
     22 H          60.3187   86.1113    6.1357 H       1  UNL1        0.1192
     23 H          60.4746   84.5035    6.5420 H       1  UNL1        0.1192
     24 C          63.5504   90.9094   13.0733 C.3     1  UNL1        0.1235
     25 C          64.6114   91.8876   12.6643 C.3     1  UNL1        0.1351
     26 C          65.0133   92.2151   11.2568 C.3     1  UNL1        0.0339
     27 C          66.1071   93.2399   11.3136 C.3     1  UNL1        0.0346
     28 C          66.3814   93.5459   12.7562 C.3     1  UNL1        0.1422
     29 O          65.4569   92.7100   13.5911 O.3     1  UNL1       -0.3545
@<TRIPOS>BOND
     1     1     2    1
     2     2     3   ar
     3     3     4   ar
     4     4     5   ar
     5     5     6   ar
     6     6    12    1
     7    12    13   ar
     8    13    14   ar
     9    14    15   ar
    10    15    16    1
    11    15    17   ar
    12    17    18   ar
    13    18    19    1
    14     6     7   ar
    15     7    20    1
    16    20    21    1
    17     5     8    1
    18     8     9    2
    19     8    10   am
    20    10    24    1
    21    25    24    1
    22    25    26    1
    23    26    27    1
    24    27    28    1
    25    28    29    1
    26    10    11    1
    27     7     2   ar
    28    29    25    1
    29    11     4    1
    30    18    12   ar
    31    21    22    1
    32    21    23    1
@<TRIPOS>MOLECULE
*****
 29 32 0 0 0
SMALL
GASTEIGER

@<TRIPOS>ATOM
      1 C          63.8621   83.7355   14.9350 C.3     1  UNL1        0.0518
      2 C          63.6976   85.0395   14.2121 C.ar    1  UNL1        0.0563
      3 N          64.2623   86.2990   14.7993 N.ar    1  UNL1       -0.2524
      4 C          64.0978   87.6030   14.0765 C.ar    1  UNL1        0.0830
      5 C          63.3686   87.6475   12.7664 C.ar    1  UNL1        0.0686
      6 C          62.8038   86.3881   12.1792 C.ar    1  UNL1        0.0048
      7 C          62.9684   85.0840   12.9021 C.ar    1  UNL1        0.0072
      8 C          63.3630   89.0688   12.2871 C.2     1  UNL1        0.2506
      9 O          62.7409   89.5685   11.0169 O.2     1  UNL1       -0.2699
     10 N          64.0888   89.9027   13.3009 N.am    1  UNL1       -0.2679
     11 C          64.5430   88.9968   14.4068 C.3     1  UNL1        0.1398
     12 C          62.0746   86.4325   10.8691 C.ar    1  UNL1        0.0106
     13 C          62.6728   85.7852    9.6555 C.ar    1  UNL1        0.0017
     14 C          61.9436   85.8296    8.3454 C.ar    1  UNL1        0.0114
     15 C          60.6162   86.5214    8.2491 C.ar    1  UNL1        0.0585
     16 CL         59.8870   86.5658    6.9390 Cl      1  UNL1       -0.0822
     17 C          60.0180   87.1688    9.4627 C.ar    1  UNL1        0.0228
     18 C          60.7472   87.1244   10.7728 C.ar    1  UNL1        0.0585
     19 CL         60.1489   87.7717   11.9865 Cl      1  UNL1       -0.0822
     20 C          62.4036   83.8245   12.3149 C.3     1  UNL1        0.0934
     21 N          63.2965   82.8799   11.5664 N.3     1  UNL1       -0.3174
     22 H          63.6304   83.3306   10.7145 H       1  UNL1        0.1192
     23 H          62.7738   82.0384   11.3234 H       1  UNL1        0.1192
     24 C          64.3199   91.3827   13.2226 C.3     1  UNL1        0.1235
     25 C          65.5022   91.9948   13.9136 C.3     1  UNL1        0.1351
     26 C          66.9136   92.0026   13.4057 C.3     1  UNL1        0.0339
     27 C          67.7644   92.7191   14.4119 C.3     1  UNL1        0.0346
     28 C          66.8790   93.1543   15.5418 C.3     1  UNL1        0.1422
     29 O          65.4808   92.7066   15.2338 O.3     1  UNL1       -0.3545
@<TRIPOS>BOND
     1     1     2    1
     2     2     3   ar
     3     3     4   ar
     4     4     5   ar
     5     5     6   ar
     6     6    12    1
     7    12    13   ar
     8    13    14   ar
     9    14    15   ar
    10    15    16    1
    11    15    17   ar
    12    17    18   ar
    13    18    19    1
    14     6     7   ar
    15     7    20    1
    16    20    21    1
    17     5     8    1
    18     8     9    2
    19     8    10   am
    20    10    24    1
    21    25    24    1
    22    25    26    1
    23    26    27    1
    24    27    28    1
    25    28    29    1
    26    10    11    1
    27     7     2   ar
    28    29    25    1
    29    11     4    1
    30    18    12   ar
    31    21    22    1
    32    21    23    1
@<TRIPOS>MOLECULE
*****
 29 32 0 0 0
SMALL
GASTEIGER

@<TRIPOS>ATOM
      1 C          63.9767   83.9226   14.6733 C.3     1  UNL1        0.0518
      2 C          63.7364   85.2262   13.9711 C.ar    1  UNL1        0.0563
      3 N          64.2668   86.5017   14.5556 N.ar    1  UNL1       -0.2524
      4 C          64.0265   87.8053   13.8536 C.ar    1  UNL1        0.0830
      5 C          63.2558   87.8333   12.5670 C.ar    1  UNL1        0.0686
      6 C          62.7253   86.5578   11.9825 C.ar    1  UNL1        0.0048
      7 C          62.9657   85.2542   12.6847 C.ar    1  UNL1        0.0072
      8 C          63.1769   89.2582   12.1048 C.2     1  UNL1        0.2506
      9 O          62.4956   89.7450   10.8603 O.2     1  UNL1       -0.2699
     10 N          63.8989   90.1107   13.1058 N.am    1  UNL1       -0.2679
     11 C          64.4240   89.2128   14.1865 C.3     1  UNL1        0.1398
     12 C          61.9546   86.5858   10.6960 C.ar    1  UNL1        0.0106
     13 C          62.5289   85.9519    9.4638 C.ar    1  UNL1        0.0017
     14 C          61.7583   85.9798    8.1772 C.ar    1  UNL1        0.0114
     15 C          60.4133   86.6416    8.1229 C.ar    1  UNL1        0.0585
     16 CL         59.6426   86.6695    6.8363 Cl      1  UNL1       -0.0822
     17 C          59.8389   87.2754    9.3551 C.ar    1  UNL1        0.0228
     18 C          60.6096   87.2475   10.6417 C.ar    1  UNL1        0.0585
     19 CL         60.0353   87.8814   11.8739 Cl      1  UNL1       -0.0822
     20 C          62.4352   83.9786   12.1002 C.3     1  UNL1        0.0934
     21 N          63.3501   83.0642   11.3405 N.3     1  UNL1       -0.3174
     22 H          63.6609   83.5271   10.4864 H       1  UNL1        0.1192
     23 H          62.8518   82.2071   11.1008 H       1  UNL1        0.1192
     24 C          64.0664   91.5998   13.0379 C.3     1  UNL1        0.1235
     25 C          65.0979   92.1978   12.1278 C.3     1  UNL1        0.1351
     26 C          66.5504   92.3915   12.4483 C.3     1  UNL1        0.0339
     27 C          67.2083   93.0205   11.2560 C.3     1  UNL1        0.0346
     28 C          66.1625   93.2155   10.1985 C.3     1  UNL1        0.1422
     29 O          64.8581   92.7070   10.7373 O.3     1  UNL1       -0.3545
@<TRIPOS>BOND
     1     1     2    1
     2     2     3   ar
     3     3     4   ar
     4     4     5   ar
     5     5     6   ar
     6     6    12    1
     7    12    13   ar
     8    13    14   ar
     9    14    15   ar
    10    15    16    1
    11    15    17   ar
    12    17    18   ar
    13    18    19    1
    14     6     7   ar
    15     7    20    1
    16    20    21    1
    17     5     8    1
    18     8     9    2
    19     8    10   am
    20    10    24    1
    21    25    24    1
    22    25    26    1
    23    26    27    1
    24    27    28    1
    25    28    29    1
    26    10    11    1
    27     7     2   ar
    28    29    25    1
    29    11     4    1
    30    18    12   ar
    31    21    22    1
    32    21    23    1
@<TRIPOS>MOLECULE
*****
 29 32 0 0 0
SMALL
GASTEIGER

@<TRIPOS>ATOM
      1 C          63.9160   83.1095   14.8888 C.3     1  UNL1        0.0518
      2 C          63.7380   84.4364   14.2121 C.ar    1  UNL1        0.0563
      3 N          64.2792   85.6818   14.8493 N.ar    1  UNL1       -0.2524
      4 C          64.1013   87.0086   14.1726 C.ar    1  UNL1        0.0830
      5 C          63.3822   87.0901   12.8588 C.ar    1  UNL1        0.0686
      6 C          62.8410   85.8447   12.2216 C.ar    1  UNL1        0.0048
      7 C          63.0189   84.5178   12.8983 C.ar    1  UNL1        0.0072
      8 C          63.3594   88.5276   12.4311 C.2     1  UNL1        0.2506
      9 O          62.7403   89.0640   11.1745 O.2     1  UNL1       -0.2699
     10 N          64.0645   89.3346   13.4806 N.am    1  UNL1       -0.2679
     11 C          64.5230   88.3959   14.5570 C.3     1  UNL1        0.1398
     12 C          62.1218   85.9260   10.9077 C.ar    1  UNL1        0.0106
     13 C          60.8307   86.6827   10.8050 C.ar    1  UNL1        0.0017
     14 C          60.1115   86.7641    9.4912 C.ar    1  UNL1        0.0114
     15 C          60.6834   86.0888    8.2801 C.ar    1  UNL1        0.0585
     16 CL         59.9642   86.1702    6.9663 Cl      1  UNL1       -0.0822
     17 C          61.9745   85.3321    8.3828 C.ar    1  UNL1        0.0228
     18 C          62.6937   85.2507    9.6966 C.ar    1  UNL1        0.0585
     19 CL         63.9848   84.4940    9.7992 Cl      1  UNL1       -0.0822
     20 C          62.4777   83.2723   12.2610 C.3     1  UNL1        0.0934
     21 N          61.8167   82.2240   13.1060 N.3     1  UNL1       -0.3174
     22 H          62.5054   81.8091   13.7336 H       1  UNL1        0.1192
     23 H          61.4251   81.4994   12.5043 H       1  UNL1        0.1192
     24 C          64.2743   90.8197   13.4579 C.3     1  UNL1        0.1235
     25 C          65.1811   91.4646   14.4638 C.3     1  UNL1        0.1351
     26 C          66.6427   91.7468   14.2799 C.3     1  UNL1        0.0339
     27 C          67.1504   92.3971   15.5326 C.3     1  UNL1        0.0346
     28 C          66.0026   92.5168   16.4908 C.3     1  UNL1        0.1422
     29 O          64.7854   91.9405   15.8302 O.3     1  UNL1       -0.3545
@<TRIPOS>BOND
     1     1     2    1
     2     2     3   ar
     3     3     4   ar
     4     4     5   ar
     5     5     6   ar
     6     6    12    1
     7    12    13   ar
     8    13    14   ar
     9    14    15   ar
    10    15    16    1
    11    15    17   ar
    12    17    18   ar
    13    18    19    1
    14     6     7   ar
    15     7    20    1
    16    20    21    1
    17     5     8    1
    18     8     9    2
    19     8    10   am
    20    10    24    1
    21    25    24    1
    22    25    26    1
    23    26    27    1
    24    27    28    1
    25    28    29    1
    26    10    11    1
    27     7     2   ar
    28    29    25    1
    29    11     4    1
    30    18    12   ar
    31    21    22    1
    32    21    23    1
@<TRIPOS>MOLECULE
*****
 29 32 0 0 0
SMALL
GASTEIGER

@<TRIPOS>ATOM
      1 C          63.0941   80.1413   11.5512 C.3     1  UNL1        0.0518
      2 C          62.9912   81.6368   11.6074 C.ar    1  UNL1        0.0563
      3 N          62.8911   82.4298   10.3381 N.ar    1  UNL1       -0.2524
      4 C          62.7882   83.9252   10.3942 C.ar    1  UNL1        0.0830
      5 C          62.7856   84.6276   11.7196 C.ar    1  UNL1        0.0686
      6 C          62.8857   83.8346   12.9889 C.ar    1  UNL1        0.0048
      7 C          62.9886   82.3391   12.9327 C.ar    1  UNL1        0.0072
      8 C          62.6733   86.1012   11.4631 C.2     1  UNL1        0.2506
      9 O          62.6345   87.1775   12.5072 O.2     1  UNL1       -0.2699
     10 N          62.6065   86.3096    9.9791 N.am    1  UNL1       -0.2679
     11 C          62.6776   84.9648    9.3185 C.3     1  UNL1        0.1398
     12 C          62.8831   84.5369   14.3143 C.ar    1  UNL1        0.0106
     13 C          61.5952   84.7283   15.0590 C.ar    1  UNL1        0.0017
     14 C          61.5924   85.4306   16.3845 C.ar    1  UNL1        0.0114
     15 C          62.8776   85.9415   16.9651 C.ar    1  UNL1        0.0585
     16 CL         62.8749   86.6438   18.2905 Cl      1  UNL1       -0.0822
     17 C          64.1655   85.7501   16.2204 C.ar    1  UNL1        0.0228
     18 C          64.1683   85.0478   14.8950 C.ar    1  UNL1        0.0585
     19 CL         65.4562   84.8564   14.1503 Cl      1  UNL1       -0.0822
     20 C          63.0888   81.5461   14.2020 C.3     1  UNL1        0.0934
     21 N          61.8430   81.0821   14.8968 N.3     1  UNL1       -0.3174
     22 H          61.3245   81.8903   15.2409 H       1  UNL1        0.1192
     23 H          62.0950   80.4806   15.6811 H       1  UNL1        0.1192
     24 C          62.4893   87.6308    9.2787 C.3     1  UNL1        0.1235
     25 C          61.7567   88.7643    9.9332 C.3     1  UNL1        0.1351
     26 C          62.3669   90.0471   10.4151 C.3     1  UNL1        0.0339
     27 C          61.2726   90.8897   11.0005 C.3     1  UNL1        0.0346
     28 C          59.9862   90.1277   10.8805 C.3     1  UNL1        0.1422
     29 O          60.2854   88.8141   10.2209 O.3     1  UNL1       -0.3545
@<TRIPOS>BOND
     1     1     2    1
     2     2     3   ar
     3     3     4   ar
     4     4     5   ar
     5     5     6   ar
     6     6    12    1
     7    12    13   ar
     8    13    14   ar
     9    14    15   ar
    10    15    16    1
    11    15    17   ar
    12    17    18   ar
    13    18    19    1
    14     6     7   ar
    15     7    20    1
    16    20    21    1
    17     5     8    1
    18     8     9    2
    19     8    10   am
    20    10    24    1
    21    25    24    1
    22    25    26    1
    23    26    27    1
    24    27    28    1
    25    28    29    1
    26    10    11    1
    27     7     2   ar
    28    29    25    1
    29    11     4    1
    30    18    12   ar
    31    21    22    1
    32    21    23    1
@<TRIPOS>MOLECULE
*****
 29 32 0 0 0
SMALL
GASTEIGER

@<TRIPOS>ATOM
      1 C          63.3421   92.9631    2.2137 C.3     1  UNL1        0.0518
      2 C          62.8171   93.2225    0.8327 C.ar    1  UNL1        0.0563
      3 N          63.7706   93.3877   -0.3133 N.ar    1  UNL1       -0.2524
      4 C          63.2456   93.6471   -1.6943 C.ar    1  UNL1        0.0830
      5 C          61.7671   93.7412   -1.9293 C.ar    1  UNL1        0.0686
      6 C          60.8136   93.5759   -0.7832 C.ar    1  UNL1        0.0048
      7 C          61.3387   93.3165    0.5978 C.ar    1  UNL1        0.0072
      8 C          61.5455   94.0034   -3.3894 C.2     1  UNL1        0.2506
      9 O          60.2159   94.1687   -4.0637 O.2     1  UNL1       -0.2699
     10 N          62.8871   94.0714   -4.0569 N.am    1  UNL1       -0.2679
     11 C          63.9378   93.8512   -3.0093 C.3     1  UNL1        0.1398
     12 C          59.3351   93.6700   -1.0181 C.ar    1  UNL1        0.0106
     13 C          58.5478   92.4361   -1.3462 C.ar    1  UNL1        0.0017
     14 C          57.0693   92.5301   -1.5811 C.ar    1  UNL1        0.0114
     15 C          56.3781   93.8580   -1.4878 C.ar    1  UNL1        0.0585
     16 CL         54.8996   93.9520   -1.7227 Cl      1  UNL1       -0.0822
     17 C          57.1653   95.0919   -1.1597 C.ar    1  UNL1        0.0228
     18 C          58.6439   94.9980   -0.9248 C.ar    1  UNL1        0.0585
     19 CL         59.4311   96.2319   -0.5967 Cl      1  UNL1       -0.0822
     20 C          60.3851   93.1513    1.7439 C.3     1  UNL1        0.0934
     21 N          60.1344   94.2947    2.6819 N.3     1  UNL1       -0.3174
     22 H          60.9884   94.5036    3.1991 H       1  UNL1        0.1192
     23 H          59.3939   94.0417    3.3361 H       1  UNL1        0.1192
     24 C          63.1346   94.3166   -5.5159 C.3     1  UNL1        0.1235
     25 C          64.1570   93.5012   -6.2506 C.3     1  UNL1        0.1351
     26 C          65.3576   94.0361   -6.9733 C.3     1  UNL1        0.0339
     27 C          66.1010   92.8733   -7.5610 C.3     1  UNL1        0.0346
     28 C          65.3598   91.6197   -7.2015 C.3     1  UNL1        0.1422
     29 O          64.1583   92.0078   -6.3916 O.3     1  UNL1       -0.3545
@<TRIPOS>BOND
     1     1     2    1
     2     2     3   ar
     3     3     4   ar
     4     4     5   ar
     5     5     6   ar
     6     6    12    1
     7    12    13   ar
     8    13    14   ar
     9    14    15   ar
    10    15    16    1
    11    15    17   ar
    12    17    18   ar
    13    18    19    1
    14     6     7   ar
    15     7    20    1
    16    20    21    1
    17     5     8    1
    18     8     9    2
    19     8    10   am
    20    10    24    1
    21    25    24    1
    22    25    26    1
    23    26    27    1
    24    27    28    1
    25    28    29    1
    26    10    11    1
    27     7     2   ar
    28    29    25    1
    29    11     4    1
    30    18    12   ar
    31    21    22    1
    32    21    23    1
@<TRIPOS>MOLECULE
*****
 29 32 0 0 0
SMALL
GASTEIGER

@<TRIPOS>ATOM
      1 C          60.0547   88.7223    8.5498 C.3     1  UNL1        0.0518
      2 C          60.9905   88.4624    9.6930 C.ar    1  UNL1        0.0563
      3 N          61.5117   89.6069   10.5106 N.ar    1  UNL1       -0.2524
      4 C          62.4475   89.3470   11.6537 C.ar    1  UNL1        0.0830
      5 C          62.8621   87.9426   11.9792 C.ar    1  UNL1        0.0686
      6 C          62.3409   86.7982   11.1616 C.ar    1  UNL1        0.0048
      7 C          61.4051   87.0581   10.0185 C.ar    1  UNL1        0.0072
      8 C          63.7903   87.9943   13.1564 C.2     1  UNL1        0.2506
      9 O          64.4445   86.8165   13.8158 O.2     1  UNL1       -0.2699
     10 N          63.9493   89.4307   13.5585 N.am    1  UNL1       -0.2679
     11 C          63.1195   90.2667   12.6298 C.3     1  UNL1        0.1398
     12 C          62.7555   85.3938   11.4870 C.ar    1  UNL1        0.0106
     13 C          63.6030   84.6193   10.5217 C.ar    1  UNL1        0.0017
     14 C          64.0176   83.2149   10.8471 C.ar    1  UNL1        0.0114
     15 C          63.5846   82.5851   12.1377 C.ar    1  UNL1        0.0585
     16 CL         63.9992   81.1807   12.4631 Cl      1  UNL1       -0.0822
     17 C          62.7371   83.3596   13.1031 C.ar    1  UNL1        0.0228
     18 C          62.3226   84.7640   12.7777 C.ar    1  UNL1        0.0585
     19 CL         61.4751   85.5385   13.7430 Cl      1  UNL1       -0.0822
     20 C          60.8839   85.9136    9.2008 C.3     1  UNL1        0.0934
     21 N          61.4317   85.6625    7.8272 N.3     1  UNL1       -0.3174
     22 H          61.1811   86.4383    7.2141 H       1  UNL1        0.1192
     23 H          61.0391   84.7966    7.4576 H       1  UNL1        0.1192
     24 C          64.7905   89.9414   14.6906 C.3     1  UNL1        0.1235
     25 C          65.6571   91.1500   14.4951 C.3     1  UNL1        0.1351
     26 C          67.0929   91.2817   14.9089 C.3     1  UNL1        0.0339
     27 C          67.5632   92.6522   14.5211 C.3     1  UNL1        0.0346
     28 C          66.4182   93.3676   13.8676 C.3     1  UNL1        0.1422
     29 O          65.2401   92.4392   13.8516 O.3     1  UNL1       -0.3545
@<TRIPOS>BOND
     1     1     2    1
     2     2     3   ar
     3     3     4   ar
     4     4     5   ar
     5     5     6   ar
     6     6    12    1
     7    12    13   ar
     8    13    14   ar
     9    14    15   ar
    10    15    16    1
    11    15    17   ar
    12    17    18   ar
    13    18    19    1
    14     6     7   ar
    15     7    20    1
    16    20    21    1
    17     5     8    1
    18     8     9    2
    19     8    10   am
    20    10    24    1
    21    25    24    1
    22    25    26    1
    23    26    27    1
    24    27    28    1
    25    28    29    1
    26    10    11    1
    27     7     2   ar
    28    29    25    1
    29    11     4    1
    30    18    12   ar
    31    21    22    1
    32    21    23    1
