@<TRIPOS>MOLECULE
*****
 40 43 0 0 0
SMALL
GASTEIGER

@<TRIPOS>ATOM
      1 C          63.9624   86.4255   15.6192 C.ar    1  UNL1        0.0611
      2 C          63.1765   86.0434   16.8383 C.ar    1  UNL1        0.1037
      3 N          62.6892   87.3038   17.4895 N.ar    1  UNL1       -0.2269
      4 C          63.1740   88.4649   16.6728 C.ar    1  UNL1        0.1407
      5 N          63.0006   89.9462   16.8324 N.ar    1  UNL1       -0.3374
      6 C          63.6141   90.8847   15.8360 C.ar    1  UNL1        0.0734
      7 C          64.4010   90.3419   14.6801 C.ar    1  UNL1        0.0171
      8 C          64.5744   88.8606   14.5205 C.ar    1  UNL1        0.0046
      9 C          63.9609   87.9220   15.5169 C.ar    1  UNL1        0.0386
     10 H          62.4841   90.3025   17.5910 H       1  UNL1        0.1674
     11 C          65.0145   91.2805   13.6837 C.ar    1  UNL1        0.0015
     12 C          64.3820   91.4615   12.3357 C.ar    1  UNL1        0.0014
     13 C          64.9955   92.4001   11.3393 C.ar    1  UNL1        0.0199
     14 C          66.2415   93.1577   11.6910 C.ar    1  UNL1        0.1217
     15 C          66.8739   92.9767   13.0391 C.ar    1  UNL1        0.0199
     16 C          66.2604   92.0381   14.0354 C.ar    1  UNL1        0.0014
     17 S          66.8549   94.0963   10.6947 S.O2    1  UNL1        0.0572
     18 N          67.4684   95.0348    9.6984 N.3     1  UNL1       -0.2035
     19 O          65.7389   95.0713   10.9260 O.2     1  UNL1       -0.1532
     20 O          67.9710   93.1212   10.4634 O.2     1  UNL1       -0.1532
     21 H          66.8920   95.8727    9.6209 H       1  UNL1        0.1442
     22 H          67.5253   94.5759    8.7892 H       1  UNL1        0.1442
     23 C          64.6323   85.4776   14.6692 C.2     1  UNL1        0.2015
     24 O          66.1063   85.2224   14.7789 O.2     1  UNL1       -0.2864
     25 C          62.4443   84.8802   11.4125 C.ar    1  UNL1        0.0920
     26 C          62.2197   83.3991   11.4896 C.ar    1  UNL1        0.0204
     27 C          62.7994   82.6108   12.6265 C.ar    1  UNL1        0.0312
     28 C          63.6036   83.3036   13.6864 C.ar    1  UNL1        0.1454
     29 F          64.1832   82.5153   14.8233 F       1  UNL1       -0.2040
     30 C          63.8281   84.7847   13.6093 C.ar    1  UNL1        0.0951
     31 C          63.2484   85.5729   12.4723 C.ar    1  UNL1        0.1598
     32 F          63.4730   87.0541   12.3953 F       1  UNL1       -0.2026
     33 N          61.8646   85.6685   10.2755 N.pl3   1  UNL1       -0.2166
     34 H          61.6804   85.2279    9.4146 H       1  UNL1        0.1734
     35 S          61.5656   87.1279   10.4504 S.O2    1  UNL1        0.0540
     36 O          60.5881   86.7972   11.5390 O.2     1  UNL1       -0.1545
     37 O          62.5430   87.4586    9.3618 O.2     1  UNL1       -0.1545
     38 C          61.2666   88.5873   10.6252 C.3     1  UNL1        0.1724
     39 C          59.6191   90.4553   11.3649 C.3     1  UNL1        0.0019
     40 C          60.0456   89.0173   11.3831 C.3     1  UNL1        0.0273
@<TRIPOS>BOND
     1    39    40    1
     2    40    38    1
     3    38    35    1
     4    35    36    2
     5    35    37    2
     6    35    33    1
     7    33    25    1
     8    25    26   ar
     9    26    27   ar
    10    27    28   ar
    11    28    29    1
    12    28    30   ar
    13    30    23    1
    14    23    24    2
    15    23     1    1
    16     1     2   ar
    17     2     3   ar
    18     3     4   ar
    19     4     5   ar
    20     5     6   ar
    21     6     7   ar
    22     7    11    1
    23    11    12   ar
    24    12    13   ar
    25    13    14   ar
    26    14    17    1
    27    17    18    1
    28    17    19    2
    29    17    20    2
    30    14    15   ar
    31    15    16   ar
    32     7     8   ar
    33     8     9   ar
    34    30    31   ar
    35    31    32    1
    36    31    25   ar
    37     9     1   ar
    38     9     4    1
    39    16    11   ar
    40    33    34    1
    41     5    10    1
    42    18    21    1
    43    18    22    1
@<TRIPOS>MOLECULE
*****
 40 43 0 0 0
SMALL
GASTEIGER

@<TRIPOS>ATOM
      1 C          63.9405   86.3721   15.6203 C.ar    1  UNL1        0.0611
      2 C          63.1556   85.9893   16.8398 C.ar    1  UNL1        0.1037
      3 N          62.6745   87.2495   17.4958 N.ar    1  UNL1       -0.2269
      4 C          63.1620   88.4112   16.6817 C.ar    1  UNL1        0.1407
      5 N          62.9945   89.8927   16.8461 N.ar    1  UNL1       -0.3374
      6 C          63.6095   90.8319   15.8514 C.ar    1  UNL1        0.0734
      7 C          64.3920   90.2897   14.6922 C.ar    1  UNL1        0.0171
      8 C          64.5595   88.8082   14.5278 C.ar    1  UNL1        0.0046
      9 C          63.9445   87.8689   15.5225 C.ar    1  UNL1        0.0386
     10 H          62.4809   90.2486   17.6070 H       1  UNL1        0.1674
     11 C          65.0070   91.2290   13.6975 C.ar    1  UNL1        0.0015
     12 C          64.3345   91.4702   12.3785 C.ar    1  UNL1        0.0014
     13 C          64.9495   92.4096   11.3838 C.ar    1  UNL1        0.0199
     14 C          66.2370   93.1077   11.7080 C.ar    1  UNL1        0.1217
     15 C          66.9094   92.8664   13.0270 C.ar    1  UNL1        0.0199
     16 C          66.2944   91.9271   14.0217 C.ar    1  UNL1        0.0014
     17 S          66.8520   94.0470   10.7133 S.O2    1  UNL1        0.0572
     18 N          67.4670   94.9863    9.7186 N.3     1  UNL1       -0.2035
     19 O          67.9742   93.0768   10.4911 O.2     1  UNL1       -0.1532
     20 O          65.7298   95.0171   10.9356 O.2     1  UNL1       -0.1532
     21 H          68.3259   94.5772    9.3507 H       1  UNL1        0.1442
     22 H          67.6811   95.8727   10.1755 H       1  UNL1        0.1442
     23 C          64.6049   85.4246   14.6659 C.2     1  UNL1        0.2015
     24 O          66.0742   85.1478   14.7847 O.2     1  UNL1       -0.2864
     25 C          62.3990   84.8969   11.4092 C.ar    1  UNL1        0.0920
     26 C          62.1895   83.4120   11.4463 C.ar    1  UNL1        0.0204
     27 C          62.7851   82.5981   12.5565 C.ar    1  UNL1        0.0312
     28 C          63.5903   83.2688   13.6297 C.ar    1  UNL1        0.1454
     29 F          64.1859   82.4548   14.7399 F       1  UNL1       -0.2040
     30 C          63.7997   84.7537   13.5927 C.ar    1  UNL1        0.0951
     31 C          63.2041   85.5677   12.4824 C.ar    1  UNL1        0.1598
     32 F          63.4136   87.0525   12.4455 F       1  UNL1       -0.2026
     33 N          61.8033   85.7109   10.2990 N.pl3   1  UNL1       -0.2166
     34 H          61.1509   86.4193   10.5034 H       1  UNL1        0.1734
     35 S          62.2017   85.4455    8.8775 S.O2    1  UNL1        0.0540
     36 O          60.9258   86.0752    8.4024 O.2     1  UNL1       -0.1545
     37 O          63.4775   84.8158    9.3525 O.2     1  UNL1       -0.1545
     38 C          62.6001   85.1801    7.4559 C.3     1  UNL1        0.1724
     39 C          62.0406   84.1974    5.1168 C.3     1  UNL1        0.0019
     40 C          61.6043   84.6048    6.4928 C.3     1  UNL1        0.0273
@<TRIPOS>BOND
     1    39    40    1
     2    40    38    1
     3    38    35    1
     4    35    36    2
     5    35    37    2
     6    35    33    1
     7    33    25    1
     8    25    26   ar
     9    26    27   ar
    10    27    28   ar
    11    28    29    1
    12    28    30   ar
    13    30    23    1
    14    23    24    2
    15    23     1    1
    16     1     2   ar
    17     2     3   ar
    18     3     4   ar
    19     4     5   ar
    20     5     6   ar
    21     6     7   ar
    22     7    11    1
    23    11    12   ar
    24    12    13   ar
    25    13    14   ar
    26    14    17    1
    27    17    18    1
    28    17    19    2
    29    17    20    2
    30    14    15   ar
    31    15    16   ar
    32     7     8   ar
    33     8     9   ar
    34    30    31   ar
    35    31    32    1
    36    31    25   ar
    37     9     1   ar
    38     9     4    1
    39    16    11   ar
    40    33    34    1
    41     5    10    1
    42    18    21    1
    43    18    22    1
@<TRIPOS>MOLECULE
*****
 40 43 0 0 0
SMALL
GASTEIGER

@<TRIPOS>ATOM
      1 C          61.5643   86.3790    9.3222 C.ar    1  UNL1        0.0611
      2 C          60.2114   86.1883    8.7029 C.ar    1  UNL1        0.1037
      3 N          59.4049   87.4264    8.9609 N.ar    1  UNL1       -0.2269
      4 C          60.2592   88.3823    9.7396 C.ar    1  UNL1        0.1407
      5 N          59.9943   89.7585   10.2742 N.ar    1  UNL1       -0.3374
      6 C          61.0640   90.4874   11.0321 C.ar    1  UNL1        0.0734
      7 C          62.3986   89.8401   11.2553 C.ar    1  UNL1        0.0171
      8 C          62.6635   88.4639   10.7207 C.ar    1  UNL1        0.0046
      9 C          61.5938   87.7350    9.9629 C.ar    1  UNL1        0.0386
     10 H          59.1184   90.1834   10.1277 H       1  UNL1        0.1674
     11 C          63.4683   90.5691   12.0132 C.ar    1  UNL1        0.0015
     12 C          63.7618   90.2010   13.4374 C.ar    1  UNL1        0.0014
     13 C          64.8315   90.9300   14.1953 C.ar    1  UNL1        0.0199
     14 C          65.6078   92.0270   13.5290 C.ar    1  UNL1        0.1217
     15 C          65.3143   92.3950   12.1047 C.ar    1  UNL1        0.0199
     16 C          64.2446   91.6661   11.3468 C.ar    1  UNL1        0.0014
     17 S          66.6774   92.7560   14.2868 S.O2    1  UNL1        0.0572
     18 N          67.7471   93.4849   15.0446 N.3     1  UNL1       -0.2035
     19 O          65.7981   92.7835   15.5016 O.2     1  UNL1       -0.1532
     20 O          67.5568   92.7285   13.0719 O.2     1  UNL1       -0.1532
     21 H          67.4258   93.6678   15.9952 H       1  UNL1        0.1442
     22 H          67.9514   94.3691   14.5788 H       1  UNL1        0.1442
     23 C          62.6900   85.3878    9.3039 C.2     1  UNL1        0.2015
     24 O          63.4900   85.1844    8.0516 O.2     1  UNL1       -0.2864
     25 C          62.6909   84.1611   13.0783 C.ar    1  UNL1        0.0920
     26 C          63.6670   83.0245   13.0066 C.ar    1  UNL1        0.0204
     27 C          64.3174   82.6756   11.7008 C.ar    1  UNL1        0.0312
     28 C          63.9918   83.4633   10.4666 C.ar    1  UNL1        0.1454
     29 F          64.6422   83.1144    9.1607 F       1  UNL1       -0.2040
     30 C          63.0157   84.6000   10.5382 C.ar    1  UNL1        0.0951
     31 C          62.3653   84.9489   11.8440 C.ar    1  UNL1        0.1598
     32 F          61.3891   86.0856   11.9156 F       1  UNL1       -0.2026
     33 N          62.0405   84.5100   14.3841 N.pl3   1  UNL1       -0.2166
     34 H          61.0998   84.2687   14.5455 H       1  UNL1        0.1734
     35 S          62.8234   85.2267   15.4441 S.O2    1  UNL1        0.0540
     36 O          62.1464   84.4042   16.5001 O.2     1  UNL1       -0.1545
     37 O          63.5003   86.0491   14.3880 O.2     1  UNL1       -0.1545
     38 C          63.6063   85.9433   16.5039 C.3     1  UNL1        0.1724
     39 C          63.0550   88.4244   17.0431 C.3     1  UNL1        0.0019
     40 C          62.9334   86.9658   17.3710 C.3     1  UNL1        0.0273
@<TRIPOS>BOND
     1    39    40    1
     2    40    38    1
     3    38    35    1
     4    35    36    2
     5    35    37    2
     6    35    33    1
     7    33    25    1
     8    25    26   ar
     9    26    27   ar
    10    27    28   ar
    11    28    29    1
    12    28    30   ar
    13    30    23    1
    14    23    24    2
    15    23     1    1
    16     1     2   ar
    17     2     3   ar
    18     3     4   ar
    19     4     5   ar
    20     5     6   ar
    21     6     7   ar
    22     7    11    1
    23    11    12   ar
    24    12    13   ar
    25    13    14   ar
    26    14    17    1
    27    17    18    1
    28    17    19    2
    29    17    20    2
    30    14    15   ar
    31    15    16   ar
    32     7     8   ar
    33     8     9   ar
    34    30    31   ar
    35    31    32    1
    36    31    25   ar
    37     9     1   ar
    38     9     4    1
    39    16    11   ar
    40    33    34    1
    41     5    10    1
    42    18    21    1
    43    18    22    1
@<TRIPOS>MOLECULE
*****
 40 43 0 0 0
SMALL
GASTEIGER

@<TRIPOS>ATOM
      1 C          61.4634   87.1630   10.8138 C.ar    1  UNL1        0.0611
      2 C          60.4776   87.1551    9.6833 C.ar    1  UNL1        0.1037
      3 N          60.4760   88.5195    9.0601 N.ar    1  UNL1       -0.2269
      4 C          61.4609   89.3707    9.8054 C.ar    1  UNL1        0.1407
      5 N          61.8808   90.8008    9.6372 N.ar    1  UNL1       -0.3374
      6 C          62.9110   91.3926   10.5528 C.ar    1  UNL1        0.0734
      7 C          63.5213   90.5542   11.6367 C.ar    1  UNL1        0.0171
      8 C          63.1013   89.1241   11.8049 C.ar    1  UNL1        0.0046
      9 C          62.0711   88.5323   10.8893 C.ar    1  UNL1        0.0386
     10 H          61.4803   91.3510    8.9258 H       1  UNL1        0.1674
     11 C          64.5515   91.1461   12.5524 C.ar    1  UNL1        0.0015
     12 C          64.7645   90.5634   13.9180 C.ar    1  UNL1        0.0014
     13 C          65.7947   91.1552   14.8337 C.ar    1  UNL1        0.0199
     14 C          66.6120   92.3297   14.3836 C.ar    1  UNL1        0.1217
     15 C          66.3990   92.9124   13.0179 C.ar    1  UNL1        0.0199
     16 C          65.3688   92.3206   12.1023 C.ar    1  UNL1        0.0014
     17 S          67.6422   92.9216   15.2992 S.O2    1  UNL1        0.0572
     18 N          68.6724   93.5134   16.2148 N.3     1  UNL1       -0.2035
     19 O          66.6120   93.0378   16.3832 O.2     1  UNL1       -0.1532
     20 O          68.6724   92.8053   14.2152 O.2     1  UNL1       -0.1532
     21 H          68.2454   93.7221   17.1173 H       1  UNL1        0.1442
     22 H          69.0381   94.3728   15.8048 H       1  UNL1        0.1442
     23 C          61.7851   86.0050   11.7112 C.2     1  UNL1        0.2015
     24 O          61.2661   85.9798   13.1183 O.2     1  UNL1       -0.2864
     25 C          63.7773   82.5749   11.5853 C.ar    1  UNL1        0.0920
     26 C          64.3072   82.6062   10.1823 C.ar    1  UNL1        0.0204
     27 C          63.9964   83.7705    9.2891 C.ar    1  UNL1        0.0312
     28 C          63.1557   84.9034    9.7986 C.ar    1  UNL1        0.1454
     29 F          62.8449   86.0676    8.9054 F       1  UNL1       -0.2040
     30 C          62.6258   84.8720   11.2016 C.ar    1  UNL1        0.0951
     31 C          62.9366   83.7078   12.0948 C.ar    1  UNL1        0.1598
     32 F          62.4066   83.6765   13.4978 F       1  UNL1       -0.2026
     33 N          64.0881   81.4106   12.4785 N.pl3   1  UNL1       -0.2166
     34 H          65.0156   81.0932   12.5687 H       1  UNL1        0.1734
     35 S          62.9856   80.7300   13.2343 S.O2    1  UNL1        0.0540
     36 O          63.5093   81.3057   14.5166 O.2     1  UNL1       -0.1545
     37 O          62.4619   80.1543   11.9520 O.2     1  UNL1       -0.1545
     38 C          61.8831   80.0493   13.9901 C.3     1  UNL1        0.1724
     39 C          59.2983   79.9770   14.2432 C.3     1  UNL1        0.0019
     40 C          60.5794   80.7567   14.2140 C.3     1  UNL1        0.0273
@<TRIPOS>BOND
     1    39    40    1
     2    40    38    1
     3    38    35    1
     4    35    36    2
     5    35    37    2
     6    35    33    1
     7    33    25    1
     8    25    26   ar
     9    26    27   ar
    10    27    28   ar
    11    28    29    1
    12    28    30   ar
    13    30    23    1
    14    23    24    2
    15    23     1    1
    16     1     2   ar
    17     2     3   ar
    18     3     4   ar
    19     4     5   ar
    20     5     6   ar
    21     6     7   ar
    22     7    11    1
    23    11    12   ar
    24    12    13   ar
    25    13    14   ar
    26    14    17    1
    27    17    18    1
    28    17    19    2
    29    17    20    2
    30    14    15   ar
    31    15    16   ar
    32     7     8   ar
    33     8     9   ar
    34    30    31   ar
    35    31    32    1
    36    31    25   ar
    37     9     1   ar
    38     9     4    1
    39    16    11   ar
    40    33    34    1
    41     5    10    1
    42    18    21    1
    43    18    22    1
@<TRIPOS>MOLECULE
*****
 40 43 0 0 0
SMALL
GASTEIGER

@<TRIPOS>ATOM
      1 C          61.9005   86.4750   10.7961 C.ar    1  UNL1        0.0611
      2 C          60.6174   86.3483   10.0296 C.ar    1  UNL1        0.1037
      3 N          60.0046   87.7132    9.9230 N.ar    1  UNL1       -0.2269
      4 C          60.9088   88.6835   10.6236 C.ar    1  UNL1        0.1407
      5 N          60.8166   90.1649   10.8400 N.ar    1  UNL1       -0.3374
      6 C          61.8962   90.8810   11.5960 C.ar    1  UNL1        0.0734
      7 C          63.0680   90.1157   12.1356 C.ar    1  UNL1        0.0171
      8 C          63.1602   88.6343   11.9193 C.ar    1  UNL1        0.0046
      9 C          62.0806   87.9182   11.1633 C.ar    1  UNL1        0.0386
     10 H          60.0475   90.6672   10.4858 H       1  UNL1        0.1674
     11 C          64.1477   90.8319   12.8917 C.ar    1  UNL1        0.0015
     12 C          64.5845   90.3265   14.2347 C.ar    1  UNL1        0.0014
     13 C          65.6642   91.0428   14.9907 C.ar    1  UNL1        0.0199
     14 C          66.3069   92.2644   14.4036 C.ar    1  UNL1        0.1217
     15 C          65.8699   92.7697   13.0606 C.ar    1  UNL1        0.0199
     16 C          64.7904   92.0535   12.3046 C.ar    1  UNL1        0.0014
     17 S          67.3865   92.9806   15.1596 S.O2    1  UNL1        0.0572
     18 N          68.4660   93.6968   15.9156 N.3     1  UNL1       -0.2035
     19 O          66.5079   93.0224   16.3746 O.2     1  UNL1       -0.1532
     20 O          68.2650   92.9388   13.9446 O.2     1  UNL1       -0.1532
     21 H          68.1475   93.8859   16.8659 H       1  UNL1        0.1442
     22 H          68.6819   94.5771   15.4478 H       1  UNL1        0.1442
     23 C          62.8388   85.3551   11.1359 C.2     1  UNL1        0.2015
     24 O          63.6396   84.6932   10.0541 O.2     1  UNL1       -0.2864
     25 C          62.6175   83.0818   14.3814 C.ar    1  UNL1        0.0920
     26 C          63.2512   83.9810   15.4011 C.ar    1  UNL1        0.0204
     27 C          63.7475   85.3383   14.9991 C.ar    1  UNL1        0.0312
     28 C          63.6100   85.7963   13.5774 C.ar    1  UNL1        0.1454
     29 F          64.1062   87.1536   13.1754 F       1  UNL1       -0.2040
     30 C          62.9763   84.8971   12.5577 C.ar    1  UNL1        0.0951
     31 C          62.4801   83.5398   12.9597 C.ar    1  UNL1        0.1598
     32 F          61.8464   82.6406   11.9400 F       1  UNL1       -0.2026
     33 N          62.1213   81.7245   14.7835 N.pl3   1  UNL1       -0.2166
     34 H          61.7044   81.5943   15.6658 H       1  UNL1        0.1734
     35 S          62.2603   80.5657   13.8412 S.O2    1  UNL1        0.0540
     36 O          63.7538   80.6631   13.9418 O.2     1  UNL1       -0.1545
     37 O          60.7669   80.4683   13.7407 O.2     1  UNL1       -0.1545
     38 C          62.3992   79.4069   12.8990 C.3     1  UNL1        0.1724
     39 C          62.7438   78.5083   10.4856 C.3     1  UNL1        0.0019
     40 C          62.7536   79.6475   11.4614 C.3     1  UNL1        0.0273
@<TRIPOS>BOND
     1    39    40    1
     2    40    38    1
     3    38    35    1
     4    35    36    2
     5    35    37    2
     6    35    33    1
     7    33    25    1
     8    25    26   ar
     9    26    27   ar
    10    27    28   ar
    11    28    29    1
    12    28    30   ar
    13    30    23    1
    14    23    24    2
    15    23     1    1
    16     1     2   ar
    17     2     3   ar
    18     3     4   ar
    19     4     5   ar
    20     5     6   ar
    21     6     7   ar
    22     7    11    1
    23    11    12   ar
    24    12    13   ar
    25    13    14   ar
    26    14    17    1
    27    17    18    1
    28    17    19    2
    29    17    20    2
    30    14    15   ar
    31    15    16   ar
    32     7     8   ar
    33     8     9   ar
    34    30    31   ar
    35    31    32    1
    36    31    25   ar
    37     9     1   ar
    38     9     4    1
    39    16    11   ar
    40    33    34    1
    41     5    10    1
    42    18    21    1
    43    18    22    1
@<TRIPOS>MOLECULE
*****
 40 43 0 0 0
SMALL
GASTEIGER

@<TRIPOS>ATOM
      1 C          62.8600   90.1842   12.2125 C.ar    1  UNL1        0.0611
      2 C          62.5434   91.2250   11.1798 C.ar    1  UNL1        0.1037
      3 N          62.0942   90.5203    9.9341 N.ar    1  UNL1       -0.2269
      4 C          62.1332   89.0440   10.1970 C.ar    1  UNL1        0.1407
      5 N          61.7989   87.8621    9.3360 N.ar    1  UNL1       -0.3374
      6 C          61.9379   86.4725    9.8832 C.ar    1  UNL1        0.0734
      7 C          62.4112   86.2647   11.2913 C.ar    1  UNL1        0.0171
      8 C          62.7455   87.4466   12.1523 C.ar    1  UNL1        0.0046
      9 C          62.6065   88.8363   11.6051 C.ar    1  UNL1        0.0386
     10 H          61.4883   87.9985    8.4118 H       1  UNL1        0.1674
     11 C          62.5502   84.8750   11.8385 C.ar    1  UNL1        0.0015
     12 C          62.4798   84.6411   13.3185 C.ar    1  UNL1        0.0014
     13 C          62.6188   83.2513   13.8656 C.ar    1  UNL1        0.0199
     14 C          62.8281   82.0955   12.9328 C.ar    1  UNL1        0.1217
     15 C          62.8985   82.3294   11.4528 C.ar    1  UNL1        0.0199
     16 C          62.7595   83.7191   10.9057 C.ar    1  UNL1        0.0014
     17 S          62.9671   80.7058   13.4799 S.O2    1  UNL1        0.0572
     18 N          63.1061   79.3161   14.0270 N.3     1  UNL1       -0.2035
     19 O          63.1899   81.2684   14.8524 O.2     1  UNL1       -0.1532
     20 O          62.7443   80.1432   12.1074 O.2     1  UNL1       -0.1532
     21 H          63.2804   79.3618   15.0309 H       1  UNL1        0.1442
     22 H          63.8861   78.8462   13.5675 H       1  UNL1        0.1442
     23 C          63.3449   90.4454   13.6077 C.2     1  UNL1        0.2015
     24 O          62.6488   89.8106   14.7749 O.2     1  UNL1       -0.2864
     25 C          66.4521   92.8089   12.8938 C.ar    1  UNL1        0.0920
     26 C          66.8884   93.1335   14.2917 C.ar    1  UNL1        0.0204
     27 C          66.1436   92.5621   15.4617 C.ar    1  UNL1        0.0312
     28 C          64.9624   91.6661   15.2337 C.ar    1  UNL1        0.1454
     29 F          64.2176   91.0947   16.4036 F       1  UNL1       -0.2040
     30 C          64.5261   91.3415   13.8358 C.ar    1  UNL1        0.0951
     31 C          65.2709   91.9129   12.6658 C.ar    1  UNL1        0.1598
     32 F          64.8346   91.5882   11.2679 F       1  UNL1       -0.2026
     33 N          67.1969   93.3803   11.7239 N.pl3   1  UNL1       -0.2166
     34 H          68.1037   93.0599   11.5135 H       1  UNL1        0.1734
     35 S          66.5601   94.4400   10.8745 S.O2    1  UNL1        0.0540
     36 O          66.8158   93.6122    9.6500 O.2     1  UNL1       -0.1545
     37 O          66.3044   95.2678   12.0989 O.2     1  UNL1       -0.1545
     38 C          65.9233   95.4998   10.0252 C.3     1  UNL1        0.1724
     39 C          67.1757   96.8541    8.1954 C.3     1  UNL1        0.0019
     40 C          66.7132   96.7071    9.6148 C.3     1  UNL1        0.0273
@<TRIPOS>BOND
     1    39    40    1
     2    40    38    1
     3    38    35    1
     4    35    36    2
     5    35    37    2
     6    35    33    1
     7    33    25    1
     8    25    26   ar
     9    26    27   ar
    10    27    28   ar
    11    28    29    1
    12    28    30   ar
    13    30    23    1
    14    23    24    2
    15    23     1    1
    16     1     2   ar
    17     2     3   ar
    18     3     4   ar
    19     4     5   ar
    20     5     6   ar
    21     6     7   ar
    22     7    11    1
    23    11    12   ar
    24    12    13   ar
    25    13    14   ar
    26    14    17    1
    27    17    18    1
    28    17    19    2
    29    17    20    2
    30    14    15   ar
    31    15    16   ar
    32     7     8   ar
    33     8     9   ar
    34    30    31   ar
    35    31    32    1
    36    31    25   ar
    37     9     1   ar
    38     9     4    1
    39    16    11   ar
    40    33    34    1
    41     5    10    1
    42    18    21    1
    43    18    22    1
@<TRIPOS>MOLECULE
*****
 40 43 0 0 0
SMALL
GASTEIGER

@<TRIPOS>ATOM
      1 C          63.3844   88.8099   15.7466 C.ar    1  UNL1        0.0611
      2 C          63.7042   90.1121   16.4187 C.ar    1  UNL1        0.1037
      3 N          63.6627   91.1927   15.3792 N.ar    1  UNL1       -0.2269
      4 C          63.3172   90.5583   14.0646 C.ar    1  UNL1        0.1407
      5 N          63.1370   91.1313   12.6901 N.ar    1  UNL1       -0.3374
      6 C          62.7848   90.2316   11.5428 C.ar    1  UNL1        0.0734
      7 C          62.6129   88.7589   11.7698 C.ar    1  UNL1        0.0171
      8 C          62.7931   88.1859   13.1443 C.ar    1  UNL1        0.0046
      9 C          63.1452   89.0856   14.2916 C.ar    1  UNL1        0.0386
     10 H          63.2499   92.0979   12.5411 H       1  UNL1        0.1674
     11 C          62.2607   87.8592   10.6224 C.ar    1  UNL1        0.0015
     12 C          61.4259   88.3797    9.4900 C.ar    1  UNL1        0.0014
     13 C          61.0737   87.4800    8.3426 C.ar    1  UNL1        0.0199
     14 C          61.5563   86.0598    8.3275 C.ar    1  UNL1        0.1217
     15 C          62.3911   85.5394    9.4600 C.ar    1  UNL1        0.0199
     16 C          62.7433   86.4390   10.6073 C.ar    1  UNL1        0.0014
     17 S          61.2042   85.1602    7.1802 S.O2    1  UNL1        0.0572
     18 N          60.8520   84.2605    6.0328 N.3     1  UNL1       -0.2035
     19 O          62.6372   84.7289    7.0785 O.2     1  UNL1       -0.1532
     20 O          59.7711   85.5914    7.2818 O.2     1  UNL1       -0.1532
     21 H          61.6910   83.7801    5.7075 H       1  UNL1        0.1442
     22 H          60.4621   84.8167    5.2718 H       1  UNL1        0.1442
     23 C          63.3159   87.4675   16.4124 C.2     1  UNL1        0.2015
     24 O          62.7049   87.3370   17.7760 O.2     1  UNL1       -0.2864
     25 C          63.6077   83.7705   14.9991 C.ar    1  UNL1        0.0920
     26 C          64.9432   83.8317   14.3189 C.ar    1  UNL1        0.0204
     27 C          65.7362   85.1047   14.3366 C.ar    1  UNL1        0.0312
     28 C          65.1939   86.3167   15.0344 C.ar    1  UNL1        0.1454
     29 F          65.9869   87.5897   15.0520 F       1  UNL1       -0.2040
     30 C          63.8583   86.2555   15.7145 C.ar    1  UNL1        0.0951
     31 C          63.0653   84.9824   15.6969 C.ar    1  UNL1        0.1598
     32 F          61.7297   84.9213   16.3771 F       1  UNL1       -0.2026
     33 N          62.8146   82.4974   14.9815 N.pl3   1  UNL1       -0.2166
     34 H          62.3379   82.2032   15.7910 H       1  UNL1        0.1734
     35 S          62.7479   81.6727   13.7303 S.O2    1  UNL1        0.0540
     36 O          61.9453   82.7500   13.0630 O.2     1  UNL1       -0.1545
     37 O          63.5504   80.5954   14.3977 O.2     1  UNL1       -0.1545
     38 C          62.6812   80.8479   12.4793 C.3     1  UNL1        0.1724
     39 C          64.2477   82.3902   11.0944 C.3     1  UNL1        0.0019
     40 C          63.0840   81.4463   11.1640 C.3     1  UNL1        0.0273
@<TRIPOS>BOND
     1    39    40    1
     2    40    38    1
     3    38    35    1
     4    35    36    2
     5    35    37    2
     6    35    33    1
     7    33    25    1
     8    25    26   ar
     9    26    27   ar
    10    27    28   ar
    11    28    29    1
    12    28    30   ar
    13    30    23    1
    14    23    24    2
    15    23     1    1
    16     1     2   ar
    17     2     3   ar
    18     3     4   ar
    19     4     5   ar
    20     5     6   ar
    21     6     7   ar
    22     7    11    1
    23    11    12   ar
    24    12    13   ar
    25    13    14   ar
    26    14    17    1
    27    17    18    1
    28    17    19    2
    29    17    20    2
    30    14    15   ar
    31    15    16   ar
    32     7     8   ar
    33     8     9   ar
    34    30    31   ar
    35    31    32    1
    36    31    25   ar
    37     9     1   ar
    38     9     4    1
    39    16    11   ar
    40    33    34    1
    41     5    10    1
    42    18    21    1
    43    18    22    1
@<TRIPOS>MOLECULE
*****
 40 43 0 0 0
SMALL
GASTEIGER

@<TRIPOS>ATOM
      1 C          61.4263   86.7948    9.1157 C.ar    1  UNL1        0.0611
      2 C          60.1300   86.7557    8.3620 C.ar    1  UNL1        0.1037
      3 N          59.5194   88.1247    8.4190 N.ar    1  UNL1       -0.2269
      4 C          60.4383   89.0097    9.2078 C.ar    1  UNL1        0.1407
      5 N          60.3542   90.4578    9.5897 N.ar    1  UNL1       -0.3374
      6 C          61.4486   91.0840   10.4021 C.ar    1  UNL1        0.0734
      7 C          62.6272   90.2620   10.8327 C.ar    1  UNL1        0.0171
      8 C          62.7113   88.8139   10.4509 C.ar    1  UNL1        0.0046
      9 C          61.6169   88.1878    9.6384 C.ar    1  UNL1        0.0386
     10 H          59.5807   90.9973    9.3070 H       1  UNL1        0.1674
     11 C          63.7216   90.8883   11.6452 C.ar    1  UNL1        0.0015
     12 C          63.9450   90.4542   13.0635 C.ar    1  UNL1        0.0014
     13 C          65.0395   91.0805   13.8760 C.ar    1  UNL1        0.0199
     14 C          65.9105   92.1407   13.2700 C.ar    1  UNL1        0.1217
     15 C          65.6871   92.5748   11.8516 C.ar    1  UNL1        0.0199
     16 C          64.5927   91.9485   11.0392 C.ar    1  UNL1        0.0014
     17 S          67.0049   92.7670   14.0824 S.O2    1  UNL1        0.0572
     18 N          68.0993   93.3932   14.8948 N.3     1  UNL1       -0.2035
     19 O          68.0264   92.2102   13.1356 O.2     1  UNL1       -0.1532
     20 O          65.9835   93.3237   15.0293 O.2     1  UNL1       -0.1532
     21 H          69.0023   93.1782   14.4719 H       1  UNL1        0.1442
     22 H          68.0721   93.0229   15.8448 H       1  UNL1        0.1442
     23 C          62.3669   85.6430    9.3121 C.2     1  UNL1        0.2015
     24 O          63.1198   85.0815    8.1426 O.2     1  UNL1       -0.2864
     25 C          63.4591   83.1541   12.2041 C.ar    1  UNL1        0.0920
     26 C          62.9303   83.8718   13.4104 C.ar    1  UNL1        0.0204
     27 C          62.2137   85.1799   13.2507 C.ar    1  UNL1        0.0312
     28 C          62.0259   85.7703   11.8847 C.ar    1  UNL1        0.1454
     29 F          61.3093   87.0783   11.7249 F       1  UNL1       -0.2040
     30 C          62.5547   85.0526   10.6783 C.ar    1  UNL1        0.0951
     31 C          63.2713   83.7445   10.8381 C.ar    1  UNL1        0.1598
     32 F          63.8001   83.0269    9.6316 F       1  UNL1       -0.2026
     33 N          64.1757   81.8461   12.3638 N.pl3   1  UNL1       -0.2166
     34 H          65.1312   81.7774   12.1370 H       1  UNL1        0.1734
     35 S          63.4363   80.6427   12.8691 S.O2    1  UNL1        0.0540
     36 O          64.0259   80.8530   14.2323 O.2     1  UNL1       -0.1545
     37 O          62.8468   80.4325   11.5060 O.2     1  UNL1       -0.1545
     38 C          62.6970   79.4394   13.3743 C.3     1  UNL1        0.1724
     39 C          60.6787   80.9179   14.0750 C.3     1  UNL1        0.0019
     40 C          61.4127   79.6109   14.1301 C.3     1  UNL1        0.0273
@<TRIPOS>BOND
     1    39    40    1
     2    40    38    1
     3    38    35    1
     4    35    36    2
     5    35    37    2
     6    35    33    1
     7    33    25    1
     8    25    26   ar
     9    26    27   ar
    10    27    28   ar
    11    28    29    1
    12    28    30   ar
    13    30    23    1
    14    23    24    2
    15    23     1    1
    16     1     2   ar
    17     2     3   ar
    18     3     4   ar
    19     4     5   ar
    20     5     6   ar
    21     6     7   ar
    22     7    11    1
    23    11    12   ar
    24    12    13   ar
    25    13    14   ar
    26    14    17    1
    27    17    18    1
    28    17    19    2
    29    17    20    2
    30    14    15   ar
    31    15    16   ar
    32     7     8   ar
    33     8     9   ar
    34    30    31   ar
    35    31    32    1
    36    31    25   ar
    37     9     1   ar
    38     9     4    1
    39    16    11   ar
    40    33    34    1
    41     5    10    1
    42    18    21    1
    43    18    22    1
@<TRIPOS>MOLECULE
*****
 40 43 0 0 0
SMALL
GASTEIGER

@<TRIPOS>ATOM
      1 C          64.6384   90.9233   14.9855 C.ar    1  UNL1        0.0611
      2 C          64.3496   91.9936   15.9959 C.ar    1  UNL1        0.1037
      3 N          63.6489   91.3562   17.1590 N.ar    1  UNL1       -0.2269
      4 C          63.5047   89.8919   16.8674 C.ar    1  UNL1        0.1407
      5 N          62.8956   88.7676   17.6516 N.ar    1  UNL1       -0.3374
      6 C          62.8980   87.3757   17.0924 C.ar    1  UNL1        0.0734
      7 C          63.5095   87.1082   15.7491 C.ar    1  UNL1        0.0171
      8 C          64.1186   88.2324   14.9650 C.ar    1  UNL1        0.0046
      9 C          64.1162   89.6243   15.5242 C.ar    1  UNL1        0.0386
     10 H          62.4942   88.9432   18.5332 H       1  UNL1        0.1674
     11 C          63.5119   85.7162   15.1900 C.ar    1  UNL1        0.0015
     12 C          64.6672   85.2442   14.3579 C.ar    1  UNL1        0.0014
     13 C          64.6696   83.8523   13.7987 C.ar    1  UNL1        0.0199
     14 C          63.5166   82.9324   14.0717 C.ar    1  UNL1        0.1217
     15 C          62.3613   83.4045   14.9039 C.ar    1  UNL1        0.0199
     16 C          62.3589   84.7964   15.4630 C.ar    1  UNL1        0.0014
     17 S          63.5189   81.5405   13.5126 S.O2    1  UNL1        0.0572
     18 N          63.5213   80.1487   12.9535 N.3     1  UNL1       -0.2035
     19 O          64.4873   81.9689   12.4502 O.2     1  UNL1       -0.1532
     20 O          62.5506   81.1122   14.5750 O.2     1  UNL1       -0.1532
     21 H          64.1427   80.1078   12.1457 H       1  UNL1        0.1442
     22 H          62.5754   79.8954   12.6680 H       1  UNL1        0.1442
     23 C          65.3282   91.1177   13.6679 C.2     1  UNL1        0.2015
     24 O          66.8253   91.1890   13.6083 O.2     1  UNL1       -0.2864
     25 C          62.4103   90.6327   11.0219 C.ar    1  UNL1        0.0920
     26 C          62.9063   91.4871    9.8932 C.ar    1  UNL1        0.0204
     27 C          64.2096   92.2183   10.0227 C.ar    1  UNL1        0.0312
     28 C          65.0169   92.0952   11.2808 C.ar    1  UNL1        0.1454
     29 F          66.3202   92.8264   11.4103 F       1  UNL1       -0.2040
     30 C          64.5209   91.2408   12.4096 C.ar    1  UNL1        0.0951
     31 C          63.2176   90.5096   12.2801 C.ar    1  UNL1        0.1598
     32 F          62.7217   89.6552   13.4089 F       1  UNL1       -0.2026
     33 N          61.1071   89.9015   10.8924 N.pl3   1  UNL1       -0.2166
     34 H          60.2667   90.4059   10.7997 H       1  UNL1        0.1734
     35 S          61.0842   88.4017   10.9041 S.O2    1  UNL1        0.0540
     36 O          60.1089   88.4255   12.0435 O.2     1  UNL1       -0.1545
     37 O          62.0595   88.3779    9.7647 O.2     1  UNL1       -0.1545
     38 C          61.0614   86.9020   10.9157 C.3     1  UNL1        0.1724
     39 C          62.6203   84.8243   10.9731 C.3     1  UNL1        0.0019
     40 C          62.1871   86.1396   11.5494 C.3     1  UNL1        0.0273
@<TRIPOS>BOND
     1    39    40    1
     2    40    38    1
     3    38    35    1
     4    35    36    2
     5    35    37    2
     6    35    33    1
     7    33    25    1
     8    25    26   ar
     9    26    27   ar
    10    27    28   ar
    11    28    29    1
    12    28    30   ar
    13    30    23    1
    14    23    24    2
    15    23     1    1
    16     1     2   ar
    17     2     3   ar
    18     3     4   ar
    19     4     5   ar
    20     5     6   ar
    21     6     7   ar
    22     7    11    1
    23    11    12   ar
    24    12    13   ar
    25    13    14   ar
    26    14    17    1
    27    17    18    1
    28    17    19    2
    29    17    20    2
    30    14    15   ar
    31    15    16   ar
    32     7     8   ar
    33     8     9   ar
    34    30    31   ar
    35    31    32    1
    36    31    25   ar
    37     9     1   ar
    38     9     4    1
    39    16    11   ar
    40    33    34    1
    41     5    10    1
    42    18    21    1
    43    18    22    1
