@<TRIPOS>MOLECULE
*****
 17 18 0 0 0
SMALL
GASTEIGER

@<TRIPOS>ATOM
      1 C          61.2796   88.2706    9.9787 C.ar    1  UNL1        0.0637
      2 C          60.5461   89.2191    9.0775 C.ar    1  UNL1        0.1072
      3 N          59.6964   88.6877    7.9614 N.ar    1  UNL1       -0.2417
      4 C          59.5802   87.2077    7.7466 C.ar    1  UNL1        0.0990
      5 C          60.3137   86.2592    8.6478 C.ar    1  UNL1        0.0243
      6 C          61.1634   86.7907    9.7639 C.ar    1  UNL1        0.0453
      7 C          61.8969   85.8421   10.6652 C.ar    1  UNL1        0.1461
      8 C          62.8801   84.7958   10.2312 C.ar    1  UNL1        0.0407
      9 C          63.3668   84.0804   11.4565 C.ar    1  UNL1        0.0438
     10 C          62.6843   84.6846   12.6478 C.ar    1  UNL1        0.1796
     11 O          61.7759   85.7734   12.1587 O.2     1  UNL1       -0.4504
     12 C          62.9789   89.3336   12.2109 C.1     1  UNL1       -0.0689
     13 C          62.1292   88.8021   11.0948 C.1     1  UNL1       -0.0613
     14 N          63.3444   91.0188   14.1541 N.3     1  UNL1       -0.3102
     15 C          63.8286   89.8650   13.3269 C.3     1  UNL1        0.1432
     16 H          64.0429   91.2467   14.8616 H       1  UNL1        0.1198
     17 H          62.4680   90.7658   14.6106 H       1  UNL1        0.1198
@<TRIPOS>BOND
     1    14    15    1
     2    15    12    1
     3    12    13    3
     4    13     1    1
     5     1     2   ar
     6     2     3   ar
     7     3     4   ar
     8     4     5   ar
     9     5     6   ar
    10     6     7    1
    11     7     8   ar
    12     8     9   ar
    13     9    10   ar
    14    10    11   ar
    15     6     1   ar
    16    11     7   ar
    17    14    16    1
    18    14    17    1
@<TRIPOS>MOLECULE
*****
 17 18 0 0 0
SMALL
GASTEIGER

@<TRIPOS>ATOM
      1 C          63.5408   84.0676   13.6061 C.ar    1  UNL1        0.0637
      2 C          63.9571   82.9764   14.5473 C.ar    1  UNL1        0.1072
      3 N          63.6760   81.5432   14.2053 N.ar    1  UNL1       -0.2417
      4 C          62.9786   81.2012   12.9221 C.ar    1  UNL1        0.0990
      5 C          62.5623   82.2924   11.9809 C.ar    1  UNL1        0.0243
      6 C          62.8434   83.7256   12.3229 C.ar    1  UNL1        0.0453
      7 C          62.4270   84.8169   11.3817 C.ar    1  UNL1        0.1461
      8 C          62.8847   84.9794    9.9625 C.ar    1  UNL1        0.0407
      9 C          62.2204   86.2001    9.3981 C.ar    1  UNL1        0.0438
     10 C          61.3520   86.7921   10.4685 C.ar    1  UNL1        0.1796
     11 O          61.4797   85.9371   11.6944 O.2     1  UNL1       -0.4504
     12 C          64.1029   86.9340   14.2901 C.1     1  UNL1       -0.0689
     13 C          63.8218   85.5008   13.9481 C.1     1  UNL1       -0.0613
     14 N          63.4786   89.1051   15.5732 N.3     1  UNL1       -0.3102
     15 C          64.3840   88.3672   14.6322 C.3     1  UNL1        0.1432
     16 H          63.8166   90.0602   15.6914 H       1  UNL1        0.1198
     17 H          63.4703   88.6331   16.4774 H       1  UNL1        0.1198
@<TRIPOS>BOND
     1    14    15    1
     2    15    12    1
     3    12    13    3
     4    13     1    1
     5     1     2   ar
     6     2     3   ar
     7     3     4   ar
     8     4     5   ar
     9     5     6   ar
    10     6     7    1
    11     7     8   ar
    12     8     9   ar
    13     9    10   ar
    14    10    11   ar
    15     6     1   ar
    16    11     7   ar
    17    14    16    1
    18    14    17    1
@<TRIPOS>MOLECULE
*****
 17 18 0 0 0
SMALL
GASTEIGER

@<TRIPOS>ATOM
      1 C          64.0183   90.9702   12.9813 C.ar    1  UNL1        0.0637
      2 C          63.1316   90.7456   11.7925 C.ar    1  UNL1        0.1072
      3 N          63.4262   91.4391   10.4954 N.ar    1  UNL1       -0.2417
      4 C          64.6075   92.3571   10.3872 C.ar    1  UNL1        0.0990
      5 C          65.4942   92.5817   11.5760 C.ar    1  UNL1        0.0243
      6 C          65.1995   91.8882   12.8731 C.ar    1  UNL1        0.0453
      7 C          66.0863   92.1129   14.0619 C.ar    1  UNL1        0.1461
      8 C          67.5113   91.6643   14.1963 C.ar    1  UNL1        0.0407
      9 C          68.0094   92.0997   15.5425 C.ar    1  UNL1        0.0438
     10 C          66.8921   92.8174   16.2402 C.ar    1  UNL1        0.1796
     11 O          65.7036   92.8255   15.3251 O.2     1  UNL1       -0.4504
     12 C          63.4290   89.5834   15.5754 C.1     1  UNL1       -0.0689
     13 C          63.7236   90.2768   14.2784 C.1     1  UNL1       -0.0613
     14 N          62.9488   87.4018   16.9021 N.3     1  UNL1       -0.3102
     15 C          63.1344   88.8899   16.8725 C.3     1  UNL1        0.1432
     16 H          62.7574   87.1020   17.8580 H       1  UNL1        0.1198
     17 H          63.7977   86.9466   16.5666 H       1  UNL1        0.1198
@<TRIPOS>BOND
     1    14    15    1
     2    15    12    1
     3    12    13    3
     4    13     1    1
     5     1     2   ar
     6     2     3   ar
     7     3     4   ar
     8     4     5   ar
     9     5     6   ar
    10     6     7    1
    11     7     8   ar
    12     8     9   ar
    13     9    10   ar
    14    10    11   ar
    15     6     1   ar
    16    11     7   ar
    17    14    16    1
    18    14    17    1
@<TRIPOS>MOLECULE
*****
 17 18 0 0 0
SMALL
GASTEIGER

@<TRIPOS>ATOM
      1 C          64.6860   91.5486   12.7547 C.ar    1  UNL1        0.0637
      2 C          63.4352   90.8870   12.2569 C.ar    1  UNL1        0.1072
      3 N          62.7110   89.9018   13.1258 N.ar    1  UNL1       -0.2417
      4 C          63.2376   89.5782   14.4925 C.ar    1  UNL1        0.0990
      5 C          64.4884   90.2398   14.9903 C.ar    1  UNL1        0.0243
      6 C          65.2126   91.2249   14.1214 C.ar    1  UNL1        0.0453
      7 C          66.4634   91.8865   14.6192 C.ar    1  UNL1        0.1461
      8 C          66.5621   92.8164   15.7920 C.ar    1  UNL1        0.0407
      9 C          67.9948   93.2390   15.9293 C.ar    1  UNL1        0.0438
     10 C          68.7816   92.5701   14.8413 C.ar    1  UNL1        0.1796
     11 O          67.8351   91.7343   14.0316 O.2     1  UNL1       -0.4504
     12 C          66.1343   93.5189   11.0168 C.1     1  UNL1       -0.0689
     13 C          65.4101   92.5337   11.8857 C.1     1  UNL1       -0.0613
     14 N          68.1937   94.1493    9.5638 N.3     1  UNL1       -0.3102
     15 C          66.8585   94.5041   10.1479 C.3     1  UNL1        0.1432
     16 H          68.5382   94.9296    9.0044 H       1  UNL1        0.1198
     17 H          68.0977   93.3235    8.9728 H       1  UNL1        0.1198
@<TRIPOS>BOND
     1    14    15    1
     2    15    12    1
     3    12    13    3
     4    13     1    1
     5     1     2   ar
     6     2     3   ar
     7     3     4   ar
     8     4     5   ar
     9     5     6   ar
    10     6     7    1
    11     7     8   ar
    12     8     9   ar
    13     9    10   ar
    14    10    11   ar
    15     6     1   ar
    16    11     7   ar
    17    14    16    1
    18    14    17    1
@<TRIPOS>MOLECULE
*****
 17 18 0 0 0
SMALL
GASTEIGER

@<TRIPOS>ATOM
      1 C          60.8164   86.9911    9.5181 C.ar    1  UNL1        0.0637
      2 C          60.0049   86.2625    8.4883 C.ar    1  UNL1        0.1072
      3 N          59.2454   87.0329    7.4492 N.ar    1  UNL1       -0.2417
      4 C          59.2975   88.5319    7.4399 C.ar    1  UNL1        0.0990
      5 C          60.1090   89.2605    8.4696 C.ar    1  UNL1        0.0243
      6 C          60.8685   88.4901    9.5087 C.ar    1  UNL1        0.0453
      7 C          61.6800   89.2188   10.5386 C.ar    1  UNL1        0.1461
      8 C          62.7729   90.2081   10.2615 C.ar    1  UNL1        0.0407
      9 C          63.3095   90.6869   11.5780 C.ar    1  UNL1        0.0438
     10 C          62.5481   89.9934   12.6686 C.ar    1  UNL1        0.1796
     11 O          61.5410   89.0861   12.0262 O.2     1  UNL1       -0.4504
     12 C          62.3352   85.4503   11.5963 C.1     1  UNL1       -0.0689
     13 C          61.5758   86.2207   10.5572 C.1     1  UNL1       -0.0613
     14 N          62.6889   84.7640   14.0770 N.3     1  UNL1       -0.3102
     15 C          63.0946   84.6799   12.6354 C.3     1  UNL1        0.1432
     16 H          63.3093   84.1816   14.6394 H       1  UNL1        0.1198
     17 H          61.7286   84.4357   14.1796 H       1  UNL1        0.1198
@<TRIPOS>BOND
     1    14    15    1
     2    15    12    1
     3    12    13    3
     4    13     1    1
     5     1     2   ar
     6     2     3   ar
     7     3     4   ar
     8     4     5   ar
     9     5     6   ar
    10     6     7    1
    11     7     8   ar
    12     8     9   ar
    13     9    10   ar
    14    10    11   ar
    15     6     1   ar
    16    11     7   ar
    17    14    16    1
    18    14    17    1
@<TRIPOS>MOLECULE
*****
 17 18 0 0 0
SMALL
GASTEIGER

@<TRIPOS>ATOM
      1 C          65.0019   91.6555   12.6655 C.ar    1  UNL1        0.0637
      2 C          65.1585   92.3882   11.3661 C.ar    1  UNL1        0.1072
      3 N          64.1932   92.1413   10.2448 N.ar    1  UNL1       -0.2417
      4 C          63.0714   91.1617   10.4229 C.ar    1  UNL1        0.0990
      5 C          62.9148   90.4290   11.7224 C.ar    1  UNL1        0.0243
      6 C          63.8801   90.6759   12.8437 C.ar    1  UNL1        0.0453
      7 C          63.7234   89.9432   14.1432 C.ar    1  UNL1        0.1461
      8 C          64.1883   88.5460   14.4291 C.ar    1  UNL1        0.0407
      9 C          63.8266   88.2183   15.8475 C.ar    1  UNL1        0.0438
     10 C          63.1382   89.4130   16.4382 C.ar    1  UNL1        0.1796
     11 O          63.0745   90.4790   15.3848 O.2     1  UNL1       -0.4504
     12 C          66.9325   92.1493   14.9081 C.1     1  UNL1       -0.0689
     13 C          65.9672   91.9024   13.7868 C.1     1  UNL1       -0.0613
     14 N          68.8934   93.5136   15.9295 N.3     1  UNL1       -0.3102
     15 C          67.8977   92.3962   16.0294 C.3     1  UNL1        0.1432
     16 H          69.4651   93.5360   16.7739 H       1  UNL1        0.1198
     17 H          68.4001   94.4007   15.8293 H       1  UNL1        0.1198
@<TRIPOS>BOND
     1    14    15    1
     2    15    12    1
     3    12    13    3
     4    13     1    1
     5     1     2   ar
     6     2     3   ar
     7     3     4   ar
     8     4     5   ar
     9     5     6   ar
    10     6     7    1
    11     7     8   ar
    12     8     9   ar
    13     9    10   ar
    14    10    11   ar
    15     6     1   ar
    16    11     7   ar
    17    14    16    1
    18    14    17    1
@<TRIPOS>MOLECULE
*****
 17 18 0 0 0
SMALL
GASTEIGER

@<TRIPOS>ATOM
      1 C          63.6441   86.2092   13.4256 C.ar    1  UNL1        0.0637
      2 C          64.4003   85.6582   14.5980 C.ar    1  UNL1        0.1072
      3 N          64.4284   84.1788   14.8441 N.ar    1  UNL1       -0.2417
      4 C          63.7004   83.2504   13.9178 C.ar    1  UNL1        0.0990
      5 C          62.9443   83.8014   12.7454 C.ar    1  UNL1        0.0243
      6 C          62.9161   85.2808   12.4993 C.ar    1  UNL1        0.0453
      7 C          62.1599   85.8318   11.3268 C.ar    1  UNL1        0.1461
      8 C          62.4762   85.5892    9.8808 C.ar    1  UNL1        0.0407
      9 C          61.4665   86.3296    9.0548 C.ar    1  UNL1        0.0438
     10 C          60.5261   87.0299    9.9905 C.ar    1  UNL1        0.1796
     11 O          60.9547   86.7223   11.3946 O.2     1  UNL1       -0.4504
     12 C          63.5878   89.1680   12.9334 C.1     1  UNL1       -0.0689
     13 C          63.6160   87.6886   13.1795 C.1     1  UNL1       -0.0613
     14 N          64.1798   91.5849   13.6805 N.3     1  UNL1       -0.3102
     15 C          63.5597   90.6474   12.6873 C.3     1  UNL1        0.1432
     16 H          64.0700   92.5456   13.3558 H       1  UNL1        0.1198
     17 H          65.1722   91.3700   13.7772 H       1  UNL1        0.1198
@<TRIPOS>BOND
     1    14    15    1
     2    15    12    1
     3    12    13    3
     4    13     1    1
     5     1     2   ar
     6     2     3   ar
     7     3     4   ar
     8     4     5   ar
     9     5     6   ar
    10     6     7    1
    11     7     8   ar
    12     8     9   ar
    13     9    10   ar
    14    10    11   ar
    15     6     1   ar
    16    11     7   ar
    17    14    16    1
    18    14    17    1
@<TRIPOS>MOLECULE
*****
 17 18 0 0 0
SMALL
GASTEIGER

@<TRIPOS>ATOM
      1 C          65.4211   91.9720   13.4271 C.ar    1  UNL1        0.0637
      2 C          64.9829   91.7414   14.8430 C.ar    1  UNL1        0.1072
      3 N          65.8797   92.1349   15.9792 N.ar    1  UNL1       -0.2417
      4 C          67.2147   92.7590   15.6995 C.ar    1  UNL1        0.0990
      5 C          67.6529   92.9895   14.2836 C.ar    1  UNL1        0.0243
      6 C          66.7561   92.5960   13.1474 C.ar    1  UNL1        0.0453
      7 C          67.1944   92.8266   11.7315 C.ar    1  UNL1        0.1461
      8 C          67.9734   91.8665   10.8822 C.ar    1  UNL1        0.0407
      9 C          68.1911   92.5043    9.5421 C.ar    1  UNL1        0.0438
     10 C          67.5465   93.8587    9.5631 C.ar    1  UNL1        0.1796
     11 O          66.9306   94.0578   10.9162 O.2     1  UNL1       -0.4504
     12 C          63.6275   91.1850   11.1547 C.1     1  UNL1       -0.0689
     13 C          64.5243   91.5785   12.2909 C.1     1  UNL1       -0.0613
     14 N          61.2842   90.4889   10.2750 N.3     1  UNL1       -0.3102
     15 C          62.7307   90.7915   10.0186 C.3     1  UNL1        0.1432
     16 H          60.8279   90.2410    9.3971 H       1  UNL1        0.1198
     17 H          60.8304   91.3107   10.6738 H       1  UNL1        0.1198
@<TRIPOS>BOND
     1    14    15    1
     2    15    12    1
     3    12    13    3
     4    13     1    1
     5     1     2   ar
     6     2     3   ar
     7     3     4   ar
     8     4     5   ar
     9     5     6   ar
    10     6     7    1
    11     7     8   ar
    12     8     9   ar
    13     9    10   ar
    14    10    11   ar
    15     6     1   ar
    16    11     7   ar
    17    14    16    1
    18    14    17    1
@<TRIPOS>MOLECULE
*****
 17 18 0 0 0
SMALL
GASTEIGER

@<TRIPOS>ATOM
      1 C          64.5663   91.2935   13.1805 C.ar    1  UNL1        0.0637
      2 C          65.7453   92.2061   13.3446 C.ar    1  UNL1        0.1072
      3 N          66.2428   93.0061   12.1773 N.ar    1  UNL1       -0.2417
      4 C          65.5611   92.8935   10.8459 C.ar    1  UNL1        0.0990
      5 C          64.3821   91.9810   10.6818 C.ar    1  UNL1        0.0243
      6 C          63.8847   91.1809   11.8491 C.ar    1  UNL1        0.0453
      7 C          62.7055   90.2683   11.6849 C.ar    1  UNL1        0.1461
      8 C          62.7579   88.7750   11.5543 C.ar    1  UNL1        0.0407
      9 C          61.3518   88.2726   11.4112 C.ar    1  UNL1        0.0438
     10 C          60.4303   89.4555   11.4534 C.ar    1  UNL1        0.1796
     11 O          61.2670   90.6889   11.6226 O.2     1  UNL1       -0.4504
     12 C          63.5714   89.6935   15.5151 C.1     1  UNL1       -0.0689
     13 C          64.0689   90.4935   14.3478 C.1     1  UNL1       -0.0613
     14 N          63.1326   87.3951   16.6442 N.3     1  UNL1       -0.3102
     15 C          63.0740   88.8935   16.6823 C.3     1  UNL1        0.1432
     16 H          62.7560   87.0179   17.5138 H       1  UNL1        0.1198
     17 H          64.1015   87.0954   16.5350 H       1  UNL1        0.1198
@<TRIPOS>BOND
     1    14    15    1
     2    15    12    1
     3    12    13    3
     4    13     1    1
     5     1     2   ar
     6     2     3   ar
     7     3     4   ar
     8     4     5   ar
     9     5     6   ar
    10     6     7    1
    11     7     8   ar
    12     8     9   ar
    13     9    10   ar
    14    10    11   ar
    15     6     1   ar
    16    11     7   ar
    17    14    16    1
    18    14    17    1
