@<TRIPOS>MOLECULE
*****
 29 31 0 0 0
SMALL
GASTEIGER

@<TRIPOS>ATOM
      1 C          66.1302   92.3552   12.8020 C.ar    1  UNL1        0.3398
      2 C          66.1465   92.7797   11.3635 C.ar    1  UNL1        0.1799
      3 N          65.0268   92.3776   10.4500 N.ar    1  UNL1       -0.2057
      4 C          63.8907   91.5509   10.9751 C.ar    1  UNL1        0.2187
      5 N          63.8743   91.1263   12.4136 N.ar    1  UNL1       -0.1927
      6 C          64.9941   91.5284   13.3271 C.ar    1  UNL1        0.2031
      7 O          66.9830   93.6784   14.8688 O.2     1  UNL1        0.0416
      8 N          67.2500   92.7573   13.7155 N.pl3   1  UNL1        0.0855
      9 O          68.6367   92.2383   13.4756 O.co2   1  UNL1       -0.5759
     10 N          62.7709   91.1487   10.0616 N.pl3   1  UNL1       -0.2990
     11 H          62.8019   91.3920    9.1081 H       1  UNL1        0.1500
     12 C          61.6039   90.3760   10.6008 C.3     1  UNL1        0.1173
     13 C          61.1675   89.1089    9.9270 C.ar    1  UNL1        0.0080
     14 C          60.1874   89.1617    8.7927 C.ar    1  UNL1       -0.0018
     15 C          59.7511   87.8946    8.1189 C.ar    1  UNL1       -0.0002
     16 C          60.2949   86.5747    8.5793 C.ar    1  UNL1        0.0008
     17 C          61.2750   86.5218    9.7135 C.ar    1  UNL1        0.0111
     18 C          61.7114   87.7889   10.3874 C.ar    1  UNL1        0.0553
     19 CL         62.6915   87.7361   11.5216 Cl      1  UNL1       -0.0825
     20 N          64.9777   91.1038   14.7657 N.pl3   1  UNL1       -0.3131
     21 H          65.7788   91.2271   15.3245 H       1  UNL1        0.1484
     22 C          63.7407   90.4914   15.3528 C.3     1  UNL1        0.0884
     23 C          63.6933   89.0184   15.6324 C.3     1  UNL1        0.0223
     24 C          64.3350   88.0532   14.6803 C.3     1  UNL1        0.0188
     25 C          64.2876   86.5803   14.9598 C.3     1  UNL1        0.0686
     26 N          63.5984   86.0725   16.1915 N.3     1  UNL1       -0.2975
     27 C          62.9566   87.0377   17.1437 C.3     1  UNL1        0.0686
     28 C          63.0041   88.5106   16.8641 C.3     1  UNL1        0.0188
     29 H          64.2945   85.5516   16.7249 H       1  UNL1        0.1232
@<TRIPOS>UNITY_ATOM_ATTR
8 1
charge 1
9 1
charge -1
@<TRIPOS>BOND
     1     7     8    2
     2     8     9    1
     3     8     1    1
     4     1     2   ar
     5     2     3   ar
     6     3     4   ar
     7     4    10    1
     8    10    12    1
     9    12    13    1
    10    13    14   ar
    11    14    15   ar
    12    15    16   ar
    13    16    17   ar
    14    17    18   ar
    15    18    19    1
    16     4     5   ar
    17     5     6   ar
    18     6    20    1
    19    20    22    1
    20    22    23    1
    21    23    24    1
    22    24    25    1
    23    25    26    1
    24    26    27    1
    25    27    28    1
    26     6     1   ar
    27    28    23    1
    28    18    13   ar
    29    10    11    1
    30    20    21    1
    31    26    29    1
@<TRIPOS>MOLECULE
*****
 29 31 0 0 0
SMALL
GASTEIGER

@<TRIPOS>ATOM
      1 C          60.4932   87.4995    9.3986 C.ar    1  UNL1        0.3398
      2 C          60.2152   88.9735    9.3885 C.ar    1  UNL1        0.1799
      3 N          60.7046   89.8368   10.5133 N.ar    1  UNL1       -0.2057
      4 C          61.4721   89.2261   11.6482 C.ar    1  UNL1        0.2187
      5 N          61.7501   87.7522   11.6583 N.ar    1  UNL1       -0.1927
      6 C          61.2607   86.8889   10.5335 C.ar    1  UNL1        0.2031
      7 O          58.5608   86.6815    7.8667 O.2     1  UNL1        0.0416
      8 N          60.0038   86.6362    8.2738 N.pl3   1  UNL1        0.0855
      9 O          60.9573   85.7276    7.5561 O.co2   1  UNL1       -0.5759
     10 N          61.9615   90.0894   12.7730 N.pl3   1  UNL1       -0.2990
     11 H          61.3290   90.6595   13.2671 H       1  UNL1        0.1500
     12 C          63.4146   90.0841   13.1450 C.3     1  UNL1        0.1173
     13 C          64.3224   91.1654   12.6383 C.ar    1  UNL1        0.0080
     14 C          64.2148   91.6298   11.2160 C.ar    1  UNL1       -0.0018
     15 C          65.1227   92.7111   10.7094 C.ar    1  UNL1       -0.0002
     16 C          66.1381   93.3280   11.6250 C.ar    1  UNL1        0.0008
     17 C          66.2457   92.8636   13.0473 C.ar    1  UNL1        0.0111
     18 C          65.3378   91.7823   13.5539 C.ar    1  UNL1        0.0553
     19 CL         65.4454   91.3180   14.9761 Cl      1  UNL1       -0.0825
     20 N          61.5387   85.4149   10.5437 N.pl3   1  UNL1       -0.3131
     21 H          60.9094   84.7922   10.1130 H       1  UNL1        0.1484
     22 C          62.7756   84.8896   11.2101 C.3     1  UNL1        0.0884
     23 C          62.6593   83.9478   12.3718 C.3     1  UNL1        0.0223
     24 C          62.6929   84.4790   13.7742 C.3     1  UNL1        0.0188
     25 C          62.5766   83.5373   14.9359 C.3     1  UNL1        0.0686
     26 N          62.4268   82.0644   14.6953 N.3     1  UNL1       -0.2975
     27 C          62.3932   81.5332   13.2929 C.3     1  UNL1        0.0686
     28 C          62.5095   82.4748   12.1312 C.3     1  UNL1        0.0188
     29 H          61.5529   81.7811   15.1385 H       1  UNL1        0.1232
@<TRIPOS>UNITY_ATOM_ATTR
8 1
charge 1
9 1
charge -1
@<TRIPOS>BOND
     1     7     8    2
     2     8     9    1
     3     8     1    1
     4     1     2   ar
     5     2     3   ar
     6     3     4   ar
     7     4    10    1
     8    10    12    1
     9    12    13    1
    10    13    14   ar
    11    14    15   ar
    12    15    16   ar
    13    16    17   ar
    14    17    18   ar
    15    18    19    1
    16     4     5   ar
    17     5     6   ar
    18     6    20    1
    19    20    22    1
    20    22    23    1
    21    23    24    1
    22    24    25    1
    23    25    26    1
    24    26    27    1
    25    27    28    1
    26     6     1   ar
    27    28    23    1
    28    18    13   ar
    29    10    11    1
    30    20    21    1
    31    26    29    1
@<TRIPOS>MOLECULE
*****
 29 31 0 0 0
SMALL
GASTEIGER

@<TRIPOS>ATOM
      1 C          60.6289   87.6537    9.4868 C.ar    1  UNL1        0.3398
      2 C          60.4974   89.1441    9.3808 C.ar    1  UNL1        0.1799
      3 N          61.0979   90.0268   10.4345 N.ar    1  UNL1       -0.2057
      4 C          61.8299   89.4191   11.5941 C.ar    1  UNL1        0.2187
      5 N          61.9614   87.9287   11.7001 N.ar    1  UNL1       -0.1927
      6 C          61.3609   87.0460   10.6464 C.ar    1  UNL1        0.2031
      7 O          60.8887   85.7829    7.7028 O.2     1  UNL1        0.0416
      8 N          60.0283   86.7710    8.4331 N.pl3   1  UNL1        0.0855
      9 O          58.5674   86.8763    8.1098 O.co2   1  UNL1       -0.5759
     10 N          62.4304   90.3018   12.6477 N.pl3   1  UNL1       -0.2990
     11 H          61.9107   91.0527   13.0157 H       1  UNL1        0.1500
     12 C          63.8227   90.0405   13.1409 C.3     1  UNL1        0.1173
     13 C          64.7329   91.1890   13.4610 C.ar    1  UNL1        0.0080
     14 C          65.2360   91.3795   14.8613 C.ar    1  UNL1       -0.0018
     15 C          66.1461   92.5280   15.1815 C.ar    1  UNL1       -0.0002
     16 C          66.5532   93.4860   14.1014 C.ar    1  UNL1        0.0008
     17 C          66.0502   93.2955   12.7012 C.ar    1  UNL1        0.0111
     18 C          65.1400   92.1470   12.3810 C.ar    1  UNL1        0.0553
     19 CL         64.6369   91.9565   10.9808 Cl      1  UNL1       -0.0825
     20 N          61.4924   85.5554   10.7524 N.pl3   1  UNL1       -0.3131
     21 H          60.7587   84.9737   10.4483 H       1  UNL1        0.1484
     22 C          62.7418   84.9514   11.3217 C.3     1  UNL1        0.0884
     23 C          62.6512   83.9553   12.4397 C.3     1  UNL1        0.0223
     24 C          62.5031   82.4946   12.1325 C.3     1  UNL1        0.0188
     25 C          62.4126   81.4985   13.2503 C.3     1  UNL1        0.0686
     26 N          62.4701   81.9632   14.6754 N.3     1  UNL1       -0.2975
     27 C          62.6183   83.4239   14.9825 C.3     1  UNL1        0.0686
     28 C          62.7088   84.4200   13.8647 C.3     1  UNL1        0.0188
     29 H          63.2633   81.4895   15.1077 H       1  UNL1        0.1232
@<TRIPOS>UNITY_ATOM_ATTR
8 1
charge 1
9 1
charge -1
@<TRIPOS>BOND
     1     7     8    2
     2     8     9    1
     3     8     1    1
     4     1     2   ar
     5     2     3   ar
     6     3     4   ar
     7     4    10    1
     8    10    12    1
     9    12    13    1
    10    13    14   ar
    11    14    15   ar
    12    15    16   ar
    13    16    17   ar
    14    17    18   ar
    15    18    19    1
    16     4     5   ar
    17     5     6   ar
    18     6    20    1
    19    20    22    1
    20    22    23    1
    21    23    24    1
    22    24    25    1
    23    25    26    1
    24    26    27    1
    25    27    28    1
    26     6     1   ar
    27    28    23    1
    28    18    13   ar
    29    10    11    1
    30    20    21    1
    31    26    29    1
@<TRIPOS>MOLECULE
*****
 29 31 0 0 0
SMALL
GASTEIGER

@<TRIPOS>ATOM
      1 C          63.8141   91.2790   11.8801 C.ar    1  UNL1        0.3398
      2 C          63.4825   91.3051   10.4174 C.ar    1  UNL1        0.1799
      3 N          62.3066   90.5301    9.9010 N.ar    1  UNL1       -0.2057
      4 C          61.4623   89.7290   10.8472 C.ar    1  UNL1        0.2187
      5 N          61.7939   89.7029   12.3098 N.ar    1  UNL1       -0.1927
      6 C          62.9698   90.4779   12.8263 C.ar    1  UNL1        0.2031
      7 O          65.0136   92.5196   13.8222 O.2     1  UNL1        0.0416
      8 N          64.9899   92.0540   12.3965 N.pl3   1  UNL1        0.0855
      9 O          66.1421   92.3634   11.4873 O.co2   1  UNL1       -0.5759
     10 N          60.2865   88.9540   10.3307 N.pl3   1  UNL1       -0.2990
     11 H          59.5256   89.4274    9.9231 H       1  UNL1        0.1500
     12 C          60.2699   87.4578   10.4354 C.3     1  UNL1        0.1173
     13 C          60.9662   86.6257    9.3995 C.ar    1  UNL1        0.0080
     14 C          62.3625   86.1359    9.6454 C.ar    1  UNL1       -0.0018
     15 C          63.0587   85.3039    8.6096 C.ar    1  UNL1       -0.0002
     16 C          62.3586   84.9617    7.3278 C.ar    1  UNL1        0.0008
     17 C          60.9624   85.4515    7.0820 C.ar    1  UNL1        0.0111
     18 C          60.2661   86.2835    8.1178 C.ar    1  UNL1        0.0553
     19 CL         58.8699   86.7734    7.8720 Cl      1  UNL1       -0.0825
     20 N          63.3013   90.4517   14.2890 N.pl3   1  UNL1       -0.3131
     21 H          62.8333   91.0547   14.9107 H       1  UNL1        0.1484
     22 C          64.3460   89.5067   14.8044 C.3     1  UNL1        0.0884
     23 C          63.9363   88.2505   15.5145 C.3     1  UNL1        0.0223
     24 C          64.3540   86.9143   14.9759 C.3     1  UNL1        0.0188
     25 C          63.9443   85.6581   15.6859 C.3     1  UNL1        0.0686
     26 N          63.1169   85.7382   16.9344 N.3     1  UNL1       -0.2975
     27 C          62.6991   87.0744   17.4730 C.3     1  UNL1        0.0686
     28 C          63.1088   88.3305   16.7630 C.3     1  UNL1        0.0188
     29 H          63.6507   85.2774   17.6715 H       1  UNL1        0.1232
@<TRIPOS>UNITY_ATOM_ATTR
8 1
charge 1
9 1
charge -1
@<TRIPOS>BOND
     1     7     8    2
     2     8     9    1
     3     8     1    1
     4     1     2   ar
     5     2     3   ar
     6     3     4   ar
     7     4    10    1
     8    10    12    1
     9    12    13    1
    10    13    14   ar
    11    14    15   ar
    12    15    16   ar
    13    16    17   ar
    14    17    18   ar
    15    18    19    1
    16     4     5   ar
    17     5     6   ar
    18     6    20    1
    19    20    22    1
    20    22    23    1
    21    23    24    1
    22    24    25    1
    23    25    26    1
    24    26    27    1
    25    27    28    1
    26     6     1   ar
    27    28    23    1
    28    18    13   ar
    29    10    11    1
    30    20    21    1
    31    26    29    1
@<TRIPOS>MOLECULE
*****
 29 31 0 0 0
SMALL
GASTEIGER

@<TRIPOS>ATOM
      1 C          60.8348   88.7857    9.7938 C.ar    1  UNL1        0.3398
      2 C          60.5493   90.1664   10.3057 C.ar    1  UNL1        0.1799
      3 N          61.2904   90.6919   11.4992 N.ar    1  UNL1       -0.2057
      4 C          62.3170   89.8367   12.1809 C.ar    1  UNL1        0.2187
      5 N          62.6025   88.4560   11.6690 N.ar    1  UNL1       -0.1927
      6 C          61.8613   87.9305   10.4755 C.ar    1  UNL1        0.2031
      7 O          59.7474   86.8033    8.5142 O.2     1  UNL1        0.0416
      8 N          60.0936   88.2602    8.6002 N.pl3   1  UNL1        0.0855
      9 O          59.6987   89.1916    7.4928 O.co2   1  UNL1       -0.5759
     10 N          63.0581   90.3623   13.3744 N.pl3   1  UNL1       -0.2990
     11 H          62.8011   91.2251   13.7727 H       1  UNL1        0.1500
     12 C          64.1909   89.5731   13.9611 C.3     1  UNL1        0.1173
     13 C          63.9116   88.4885   14.9588 C.ar    1  UNL1        0.0080
     14 C          64.1869   87.0565   14.6067 C.ar    1  UNL1       -0.0018
     15 C          63.9077   85.9719   15.6045 C.ar    1  UNL1       -0.0002
     16 C          63.3532   86.3191   16.9543 C.ar    1  UNL1        0.0008
     17 C          63.0780   87.7510   17.3064 C.ar    1  UNL1        0.0111
     18 C          63.3572   88.8356   16.3086 C.ar    1  UNL1        0.0553
     19 CL         63.0819   90.2675   16.6607 Cl      1  UNL1       -0.0825
     20 N          62.1468   86.5497    9.9636 N.pl3   1  UNL1       -0.3131
     21 H          62.5699   86.4289    9.0829 H       1  UNL1        0.1484
     22 C          61.7877   85.3530   10.7936 C.3     1  UNL1        0.0884
     23 C          62.8500   84.3736   11.1966 C.3     1  UNL1        0.0223
     24 C          63.1217   84.1177   12.6494 C.3     1  UNL1        0.0188
     25 C          64.1840   83.1383   13.0526 C.3     1  UNL1        0.0686
     26 N          64.9744   82.4150   12.0029 N.3     1  UNL1       -0.2975
     27 C          64.7027   82.6709   10.5501 C.3     1  UNL1        0.0686
     28 C          63.6404   83.6503   10.1470 C.3     1  UNL1        0.0188
     29 H          64.8275   81.4177   12.1587 H       1  UNL1        0.1232
@<TRIPOS>UNITY_ATOM_ATTR
8 1
charge 1
9 1
charge -1
@<TRIPOS>BOND
     1     7     8    2
     2     8     9    1
     3     8     1    1
     4     1     2   ar
     5     2     3   ar
     6     3     4   ar
     7     4    10    1
     8    10    12    1
     9    12    13    1
    10    13    14   ar
    11    14    15   ar
    12    15    16   ar
    13    16    17   ar
    14    17    18   ar
    15    18    19    1
    16     4     5   ar
    17     5     6   ar
    18     6    20    1
    19    20    22    1
    20    22    23    1
    21    23    24    1
    22    24    25    1
    23    25    26    1
    24    26    27    1
    25    27    28    1
    26     6     1   ar
    27    28    23    1
    28    18    13   ar
    29    10    11    1
    30    20    21    1
    31    26    29    1
@<TRIPOS>MOLECULE
*****
 29 31 0 0 0
SMALL
GASTEIGER

@<TRIPOS>ATOM
      1 C          64.7496   91.3557   14.7594 C.ar    1  UNL1        0.3398
      2 C          63.7144   90.4171   15.3047 C.ar    1  UNL1        0.1799
      3 N          62.7657   89.7233   14.3727 N.ar    1  UNL1       -0.2057
      4 C          62.8521   89.9681   12.8954 C.ar    1  UNL1        0.2187
      5 N          63.8873   90.9067   12.3501 N.ar    1  UNL1       -0.1927
      6 C          64.8360   91.6005   13.2821 C.ar    1  UNL1        0.2031
      7 O          65.1910   92.6462   16.9706 O.2     1  UNL1        0.0416
      8 N          65.6983   92.0495   15.6914 N.pl3   1  UNL1        0.0855
      9 O          67.1543   92.1464   15.3442 O.co2   1  UNL1       -0.5759
     10 N          61.9034   89.2743   11.9634 N.pl3   1  UNL1       -0.2990
     11 H          60.9755   89.1024   12.2438 H       1  UNL1        0.1500
     12 C          62.3685   88.8425   10.6043 C.3     1  UNL1        0.1173
     13 C          61.3949   88.2417    9.6343 C.ar    1  UNL1        0.0080
     14 C          60.4307   89.1229    8.8966 C.ar    1  UNL1       -0.0018
     15 C          59.4570   88.5221    7.9265 C.ar    1  UNL1       -0.0002
     16 C          59.4476   87.0402    7.6941 C.ar    1  UNL1        0.0008
     17 C          60.4117   86.1592    8.4317 C.ar    1  UNL1        0.0111
     18 C          61.3853   86.7599    9.4018 C.ar    1  UNL1        0.0553
     19 CL         62.3495   85.8789   10.1394 Cl      1  UNL1       -0.0825
     20 N          65.8713   92.5391   12.7367 N.pl3   1  UNL1       -0.3131
     21 H          66.4048   93.0939   13.3504 H       1  UNL1        0.1484
     22 C          66.0935   92.6323   11.2562 C.3     1  UNL1        0.0884
     23 C          66.4921   93.9398   10.6384 C.3     1  UNL1        0.0223
     24 C          67.2332   93.9582    9.3344 C.3     1  UNL1        0.0188
     25 C          67.6317   95.2656    8.7166 C.3     1  UNL1        0.0686
     26 N          67.2893   96.5547    9.4029 N.3     1  UNL1       -0.2975
     27 C          66.5482   96.5363   10.7069 C.3     1  UNL1        0.0686
     28 C          66.1496   95.2289   11.3247 C.3     1  UNL1        0.0188
     29 H          66.7219   97.0945    8.7494 H       1  UNL1        0.1232
@<TRIPOS>UNITY_ATOM_ATTR
8 1
charge 1
9 1
charge -1
@<TRIPOS>BOND
     1     7     8    2
     2     8     9    1
     3     8     1    1
     4     1     2   ar
     5     2     3   ar
     6     3     4   ar
     7     4    10    1
     8    10    12    1
     9    12    13    1
    10    13    14   ar
    11    14    15   ar
    12    15    16   ar
    13    16    17   ar
    14    17    18   ar
    15    18    19    1
    16     4     5   ar
    17     5     6   ar
    18     6    20    1
    19    20    22    1
    20    22    23    1
    21    23    24    1
    22    24    25    1
    23    25    26    1
    24    26    27    1
    25    27    28    1
    26     6     1   ar
    27    28    23    1
    28    18    13   ar
    29    10    11    1
    30    20    21    1
    31    26    29    1
@<TRIPOS>MOLECULE
*****
 29 31 0 0 0
SMALL
GASTEIGER

@<TRIPOS>ATOM
      1 C          63.3215   84.1691   13.6457 C.ar    1  UNL1        0.3398
      2 C          64.1490   84.4470   14.8655 C.ar    1  UNL1        0.1799
      3 N          64.5704   85.8514   15.1820 N.ar    1  UNL1       -0.2057
      4 C          64.1643   86.9779   14.2787 C.ar    1  UNL1        0.2187
      5 N          63.3368   86.7000   13.0589 N.ar    1  UNL1       -0.1927
      6 C          62.9154   85.2956   12.7424 C.ar    1  UNL1        0.2031
      7 O          62.7693   82.3248   11.9012 O.2     1  UNL1        0.0416
      8 N          62.9001   82.7648   13.3292 N.pl3   1  UNL1        0.0855
      9 O          62.6095   81.8004   14.4407 O.co2   1  UNL1       -0.5759
     10 N          64.5857   88.3822   14.5952 N.pl3   1  UNL1       -0.2990
     11 H          65.4598   88.5510   15.0155 H       1  UNL1        0.1500
     12 C          63.6753   89.5295   14.2713 C.3     1  UNL1        0.1173
     13 C          63.9943   90.4387   13.1218 C.ar    1  UNL1        0.0080
     14 C          63.2390   90.3105   11.8321 C.ar    1  UNL1       -0.0018
     15 C          63.5581   91.2197   10.6825 C.ar    1  UNL1       -0.0002
     16 C          64.6324   92.2572   10.8226 C.ar    1  UNL1        0.0008
     17 C          65.3876   92.3854   12.1123 C.ar    1  UNL1        0.0111
     18 C          65.0685   91.4762   13.2618 C.ar    1  UNL1        0.0553
     19 CL         65.8237   91.6044   14.5515 Cl      1  UNL1       -0.0825
     20 N          62.0878   85.0178   11.5225 N.pl3   1  UNL1       -0.3131
     21 H          61.2962   84.4360   11.5867 H       1  UNL1        0.1484
     22 C          62.4664   85.6264   10.2048 C.3     1  UNL1        0.0884
     23 C          61.5333   86.5844    9.5254 C.3     1  UNL1        0.0223
     24 C          61.5781   88.0444    9.8667 C.3     1  UNL1        0.0188
     25 C          60.6450   89.0024    9.1874 C.3     1  UNL1        0.0686
     26 N          59.6672   88.5005    8.1667 N.3     1  UNL1       -0.2975
     27 C          59.6224   87.0405    7.8254 C.3     1  UNL1        0.0686
     28 C          60.5554   86.0825    8.5048 C.3     1  UNL1        0.0188
     29 H          59.8645   88.9997    7.2994 H       1  UNL1        0.1232
@<TRIPOS>UNITY_ATOM_ATTR
8 1
charge 1
9 1
charge -1
@<TRIPOS>BOND
     1     7     8    2
     2     8     9    1
     3     8     1    1
     4     1     2   ar
     5     2     3   ar
     6     3     4   ar
     7     4    10    1
     8    10    12    1
     9    12    13    1
    10    13    14   ar
    11    14    15   ar
    12    15    16   ar
    13    16    17   ar
    14    17    18   ar
    15    18    19    1
    16     4     5   ar
    17     5     6   ar
    18     6    20    1
    19    20    22    1
    20    22    23    1
    21    23    24    1
    22    24    25    1
    23    25    26    1
    24    26    27    1
    25    27    28    1
    26     6     1   ar
    27    28    23    1
    28    18    13   ar
    29    10    11    1
    30    20    21    1
    31    26    29    1
@<TRIPOS>MOLECULE
*****
 29 31 0 0 0
SMALL
GASTEIGER

@<TRIPOS>ATOM
      1 C          61.1266   88.5916   10.8170 C.ar    1  UNL1        0.3398
      2 C          60.8648   87.1187   10.7082 C.ar    1  UNL1        0.1799
      3 N          61.6652   86.1519   11.5295 N.ar    1  UNL1       -0.2057
      4 C          62.7276   86.6581   12.4596 C.ar    1  UNL1        0.2187
      5 N          62.9894   88.1310   12.5685 N.ar    1  UNL1       -0.1927
      6 C          62.1889   89.0978   11.7471 C.ar    1  UNL1        0.2031
      7 O          60.0947   89.2919    8.5378 O.2     1  UNL1        0.0416
      8 N          60.3261   89.5584    9.9956 N.pl3   1  UNL1        0.0855
      9 O          59.7571   90.7916   10.6322 O.co2   1  UNL1       -0.5759
     10 N          63.5280   85.6913   13.2810 N.pl3   1  UNL1       -0.2990
     11 H          63.7069   85.8820   14.2301 H       1  UNL1        0.1500
     12 C          64.0560   84.4340   12.6562 C.3     1  UNL1        0.1173
     13 C          63.3724   83.1240   12.9142 C.ar    1  UNL1        0.0080
     14 C          62.6171   82.9111   14.1926 C.ar    1  UNL1       -0.0018
     15 C          61.9335   81.6011   14.4506 C.ar    1  UNL1       -0.0002
     16 C          62.0052   80.5039   13.4302 C.ar    1  UNL1        0.0008
     17 C          62.7605   80.7168   12.1519 C.ar    1  UNL1        0.0111
     18 C          63.4441   82.0268   11.8939 C.ar    1  UNL1        0.0553
     19 CL         64.1994   82.2397   10.6155 Cl      1  UNL1       -0.0825
     20 N          62.4508   90.5708   11.8560 N.pl3   1  UNL1       -0.3131
     21 H          61.9377   91.1160   12.4953 H       1  UNL1        0.1484
     22 C          63.4944   91.2129   10.9909 C.3     1  UNL1        0.0884
     23 C          64.6249   91.9733   11.6185 C.3     1  UNL1        0.0223
     24 C          65.3799   92.9919   10.8171 C.3     1  UNL1        0.0188
     25 C          66.5104   93.7523   11.4447 C.3     1  UNL1        0.0686
     26 N          66.8858   93.4940   12.8737 N.3     1  UNL1       -0.2975
     27 C          66.1308   92.4753   13.6752 C.3     1  UNL1        0.0686
     28 C          65.0004   91.7150   13.0476 C.3     1  UNL1        0.0188
     29 H          66.7959   94.3823   13.3670 H       1  UNL1        0.1232
@<TRIPOS>UNITY_ATOM_ATTR
8 1
charge 1
9 1
charge -1
@<TRIPOS>BOND
     1     7     8    2
     2     8     9    1
     3     8     1    1
     4     1     2   ar
     5     2     3   ar
     6     3     4   ar
     7     4    10    1
     8    10    12    1
     9    12    13    1
    10    13    14   ar
    11    14    15   ar
    12    15    16   ar
    13    16    17   ar
    14    17    18   ar
    15    18    19    1
    16     4     5   ar
    17     5     6   ar
    18     6    20    1
    19    20    22    1
    20    22    23    1
    21    23    24    1
    22    24    25    1
    23    25    26    1
    24    26    27    1
    25    27    28    1
    26     6     1   ar
    27    28    23    1
    28    18    13   ar
    29    10    11    1
    30    20    21    1
    31    26    29    1
@<TRIPOS>MOLECULE
*****
 29 31 0 0 0
SMALL
GASTEIGER

@<TRIPOS>ATOM
      1 C          63.6863   83.9585   13.5076 C.ar    1  UNL1        0.3398
      2 C          64.4757   84.3298   14.7278 C.ar    1  UNL1        0.1799
      3 N          64.6619   85.7735   15.0900 N.ar    1  UNL1       -0.2057
      4 C          64.0588   86.8458   14.2319 C.ar    1  UNL1        0.2187
      5 N          63.2695   86.4745   13.0117 N.ar    1  UNL1       -0.1927
      6 C          63.0832   85.0308   12.6495 C.ar    1  UNL1        0.2031
      7 O          63.3610   81.4827   14.2250 O.2     1  UNL1        0.0416
      8 N          63.5001   82.5148   13.1455 N.pl3   1  UNL1        0.0855
      9 O          63.4529   82.1033   11.7038 O.co2   1  UNL1       -0.5759
     10 N          64.2451   88.2895   14.5940 N.pl3   1  UNL1       -0.2990
     11 H          64.6336   88.5322   15.4654 H       1  UNL1        0.1500
     12 C          63.8394   89.3633   13.6285 C.3     1  UNL1        0.1173
     13 C          64.6493   90.6214   13.5222 C.ar    1  UNL1        0.0080
     14 C          65.5955   90.9995   14.6231 C.ar    1  UNL1       -0.0018
     15 C          66.4053   92.2576   14.5169 C.ar    1  UNL1       -0.0002
     16 C          66.2690   93.1376   13.3098 C.ar    1  UNL1        0.0008
     17 C          65.3228   92.7595   12.2090 C.ar    1  UNL1        0.0111
     18 C          64.5130   91.5014   12.3152 C.ar    1  UNL1        0.0553
     19 CL         63.5668   91.1233   11.2144 Cl      1  UNL1       -0.0825
     20 N          62.2939   84.6595   11.4292 N.pl3   1  UNL1       -0.3131
     21 H          61.5796   83.9848   11.4914 H       1  UNL1        0.1484
     22 C          62.5927   85.3162   10.1142 C.3     1  UNL1        0.0884
     23 C          61.7336   86.4453    9.6273 C.3     1  UNL1        0.0223
     24 C          60.5871   86.1696    8.7001 C.3     1  UNL1        0.0188
     25 C          59.7280   87.2987    8.2132 C.3     1  UNL1        0.0686
     26 N          60.0153   88.7035    8.6536 N.3     1  UNL1       -0.2975
     27 C          61.1618   88.9792    9.5808 C.3     1  UNL1        0.0686
     28 C          62.0209   87.8501   10.0676 C.3     1  UNL1        0.0188
     29 H          59.1732   89.0449    9.1169 H       1  UNL1        0.1232
@<TRIPOS>UNITY_ATOM_ATTR
8 1
charge 1
9 1
charge -1
@<TRIPOS>BOND
     1     7     8    2
     2     8     9    1
     3     8     1    1
     4     1     2   ar
     5     2     3   ar
     6     3     4   ar
     7     4    10    1
     8    10    12    1
     9    12    13    1
    10    13    14   ar
    11    14    15   ar
    12    15    16   ar
    13    16    17   ar
    14    17    18   ar
    15    18    19    1
    16     4     5   ar
    17     5     6   ar
    18     6    20    1
    19    20    22    1
    20    22    23    1
    21    23    24    1
    22    24    25    1
    23    25    26    1
    24    26    27    1
    25    27    28    1
    26     6     1   ar
    27    28    23    1
    28    18    13   ar
    29    10    11    1
    30    20    21    1
    31    26    29    1
