@<TRIPOS>MOLECULE
*****
 27 30 0 0 0
SMALL
GASTEIGER

@<TRIPOS>ATOM
      1 C          63.1920   90.3761   11.5331 C.ar    1  UNL1       -0.0003
      2 C          64.0716   91.2850   10.7270 C.ar    1  UNL1       -0.0003
      3 C          65.0928   92.1430   11.4133 C.ar    1  UNL1       -0.0020
      4 C          65.2343   92.0920   12.9057 C.ar    1  UNL1        0.0016
      5 C          64.3546   91.1831   13.7119 C.ar    1  UNL1       -0.0237
      6 C          63.3335   90.3251   13.0256 C.ar    1  UNL1       -0.0045
      7 C          64.4962   91.1321   15.2043 C.3     1  UNL1        0.0262
      8 C          65.5173   91.9901   15.8906 C.3     1  UNL1        0.0078
      9 C          66.3971   92.8991   15.0844 C.3     1  UNL1        0.0357
     10 C          66.2556   92.9501   13.5920 C.3     1  UNL1        0.1254
     11 O          67.3609   93.9459   13.7830 O.3     1  UNL1       -0.3786
     12 H          67.5680   94.0219   14.7276 H       1  UNL1        0.2111
     13 C          60.1283   87.8020    9.4744 C.ar    1  UNL1        0.1660
     14 C          60.1659   89.2783    9.2119 C.ar    1  UNL1        0.0392
     15 C          61.1871   90.1364    9.8981 C.ar    1  UNL1        0.0033
     16 C          62.1707   89.5180   10.8469 C.ar    1  UNL1        0.0024
     17 C          62.1331   88.0417   11.1094 C.ar    1  UNL1        0.0328
     18 C          61.1119   87.1836   10.4232 C.ar    1  UNL1        0.1738
     19 F          61.0743   85.7073   10.6857 F       1  UNL1       -0.2010
     20 C          59.4413   86.2751    7.4879 C.3     1  UNL1        0.2526
     21 O          59.1071   86.9439    8.7882 O.3     1  UNL1       -0.4692
     22 C          66.4979   93.3469   12.1659 C.ar    1  UNL1        0.0086
     23 C          67.3556   92.4886   11.2840 C.ar    1  UNL1        0.0190
     24 C          67.5980   92.8855    9.8579 C.ar    1  UNL1        0.0986
     25 N          66.9826   94.1406    9.3137 N.ar    1  UNL1       -0.2423
     26 C          66.1250   94.9987   10.1955 C.ar    1  UNL1        0.0986
     27 C          65.8826   94.6019   11.6217 C.ar    1  UNL1        0.0190
@<TRIPOS>BOND
     1    20    21    1
     2    21    13    1
     3    13    14   ar
     4    14    15   ar
     5    15    16   ar
     6    16     1    1
     7     1     2   ar
     8     2     3   ar
     9     3     4   ar
    10     4     5   ar
    11     5     6   ar
    12     5     7    1
    13     7     8    1
    14     8     9    1
    15     9    10    1
    16    10    11    1
    17    10    22    1
    18    22    23   ar
    19    23    24   ar
    20    24    25   ar
    21    25    26   ar
    22    26    27   ar
    23    16    17   ar
    24    17    18   ar
    25    18    19    1
    26    18    13   ar
    27     6     1   ar
    28    27    22   ar
    29    10     4    1
    30    11    12    1
@<TRIPOS>MOLECULE
*****
 27 30 0 0 0
SMALL
GASTEIGER

@<TRIPOS>ATOM
      1 C          61.9149   86.6183   11.0469 C.ar    1  UNL1       -0.0003
      2 C          61.9398   85.1212   11.1368 C.ar    1  UNL1       -0.0003
      3 C          62.7121   84.4485   12.2327 C.ar    1  UNL1       -0.0020
      4 C          63.4595   85.2728   13.2386 C.ar    1  UNL1        0.0016
      5 C          63.4346   86.7699   13.1487 C.ar    1  UNL1       -0.0237
      6 C          62.6623   87.4426   12.0528 C.ar    1  UNL1       -0.0045
      7 C          64.1820   87.5942   14.1546 C.3     1  UNL1        0.0262
      8 C          64.9543   86.9215   15.2504 C.3     1  UNL1        0.0078
      9 C          64.9793   85.4244   15.3404 C.3     1  UNL1        0.0357
     10 C          64.2319   84.6000   14.3345 C.3     1  UNL1        0.1254
     11 O          64.8150   83.5095   15.1834 O.3     1  UNL1       -0.3786
     12 H          65.3407   83.9020   15.8978 H       1  UNL1        0.2111
     13 C          59.5978   88.6366    7.7593 C.ar    1  UNL1        0.1660
     14 C          60.3649   89.4602    8.7509 C.ar    1  UNL1        0.0392
     15 C          61.1373   88.7874    9.8468 C.ar    1  UNL1        0.0033
     16 C          61.1425   87.2911    9.9510 C.ar    1  UNL1        0.0024
     17 C          60.3754   86.4675    8.9594 C.ar    1  UNL1        0.0328
     18 C          59.6031   87.1402    7.8636 C.ar    1  UNL1        0.1738
     19 F          58.8360   86.3166    6.8720 F       1  UNL1       -0.2010
     20 C          59.5174   90.2619    5.7341 C.3     1  UNL1        0.2526
     21 O          58.8255   89.3093    6.6635 O.3     1  UNL1       -0.4692
     22 C          63.6870   83.3970   13.6234 C.ar    1  UNL1        0.0086
     23 C          62.4425   82.7278   14.1270 C.ar    1  UNL1        0.0190
     24 C          61.8977   81.5247   13.4159 C.ar    1  UNL1        0.0986
     25 N          62.5972   80.9908   12.2011 N.ar    1  UNL1       -0.2423
     26 C          63.8415   81.6599   11.6976 C.ar    1  UNL1        0.0986
     27 C          64.3865   82.8630   12.4087 C.ar    1  UNL1        0.0190
@<TRIPOS>BOND
     1    20    21    1
     2    21    13    1
     3    13    14   ar
     4    14    15   ar
     5    15    16   ar
     6    16     1    1
     7     1     2   ar
     8     2     3   ar
     9     3     4   ar
    10     4     5   ar
    11     5     6   ar
    12     5     7    1
    13     7     8    1
    14     8     9    1
    15     9    10    1
    16    10    11    1
    17    10    22    1
    18    22    23   ar
    19    23    24   ar
    20    24    25   ar
    21    25    26   ar
    22    26    27   ar
    23    16    17   ar
    24    17    18   ar
    25    18    19    1
    26    18    13   ar
    27     6     1   ar
    28    27    22   ar
    29    10     4    1
    30    11    12    1
@<TRIPOS>MOLECULE
*****
 27 30 0 0 0
SMALL
GASTEIGER

@<TRIPOS>ATOM
      1 C          61.7125   85.6684   10.8548 C.ar    1  UNL1       -0.0003
      2 C          62.0292   86.1580   12.2368 C.ar    1  UNL1       -0.0003
      3 C          62.7129   85.2502   13.2157 C.ar    1  UNL1       -0.0020
      4 C          63.0798   83.8527   12.8126 C.ar    1  UNL1        0.0016
      5 C          62.7631   83.3631   11.4307 C.ar    1  UNL1       -0.0237
      6 C          62.0794   84.2709   10.4518 C.ar    1  UNL1       -0.0045
      7 C          63.1300   81.9656   11.0276 C.3     1  UNL1        0.0262
      8 C          63.8137   81.0578   12.0065 C.3     1  UNL1        0.0078
      9 C          64.1305   81.5474   13.3886 C.3     1  UNL1        0.0357
     10 C          63.7636   82.9448   13.7917 C.3     1  UNL1        0.1254
     11 O          64.3961   82.4643   15.0640 O.3     1  UNL1       -0.3786
     12 H          64.6916   81.5472   14.9520 H       1  UNL1        0.2111
     13 C          59.6614   88.3920    7.9179 C.ar    1  UNL1        0.1660
     14 C          59.8323   86.9365    7.5979 C.ar    1  UNL1        0.0392
     15 C          60.5160   86.0287    8.5769 C.ar    1  UNL1        0.0033
     16 C          61.0288   86.5763    9.8758 C.ar    1  UNL1        0.0024
     17 C          60.8579   88.0318   10.1957 C.ar    1  UNL1        0.0328
     18 C          60.1743   88.9396    9.2168 C.ar    1  UNL1        0.1738
     19 F          60.0034   90.3951    9.5367 F       1  UNL1       -0.2010
     20 C          59.7888   90.0822    5.9489 C.3     1  UNL1        0.2526
     21 O          58.9777   89.2999    6.9389 O.3     1  UNL1       -0.4692
     22 C          63.6163   84.1754   14.6366 C.ar    1  UNL1        0.0086
     23 C          62.4722   84.2914   15.5998 C.ar    1  UNL1        0.0190
     24 C          62.3251   85.5220   16.4447 C.ar    1  UNL1        0.0986
     25 N          63.3219   86.6366   16.3265 N.ar    1  UNL1       -0.2423
     26 C          64.4658   86.5206   15.3634 C.ar    1  UNL1        0.0986
     27 C          64.6131   85.2900   14.5184 C.ar    1  UNL1        0.0190
@<TRIPOS>BOND
     1    20    21    1
     2    21    13    1
     3    13    14   ar
     4    14    15   ar
     5    15    16   ar
     6    16     1    1
     7     1     2   ar
     8     2     3   ar
     9     3     4   ar
    10     4     5   ar
    11     5     6   ar
    12     5     7    1
    13     7     8    1
    14     8     9    1
    15     9    10    1
    16    10    11    1
    17    10    22    1
    18    22    23   ar
    19    23    24   ar
    20    24    25   ar
    21    25    26   ar
    22    26    27   ar
    23    16    17   ar
    24    17    18   ar
    25    18    19    1
    26    18    13   ar
    27     6     1   ar
    28    27    22   ar
    29    10     4    1
    30    11    12    1
@<TRIPOS>MOLECULE
*****
 27 30 0 0 0
SMALL
GASTEIGER

@<TRIPOS>ATOM
      1 C          62.9990   89.4286   12.0514 C.ar    1  UNL1       -0.0003
      2 C          63.2702   87.9592   11.9198 C.ar    1  UNL1       -0.0003
      3 C          62.5655   87.1580   10.8656 C.ar    1  UNL1       -0.0020
      4 C          61.5896   87.8262    9.9430 C.ar    1  UNL1        0.0016
      5 C          61.3184   89.2955   10.0746 C.ar    1  UNL1       -0.0237
      6 C          62.0231   90.0967   11.1289 C.ar    1  UNL1       -0.0045
      7 C          60.3425   89.9637    9.1521 C.3     1  UNL1        0.0262
      8 C          59.6378   89.1625    8.0978 C.3     1  UNL1        0.0078
      9 C          59.9090   87.6931    7.9662 C.3     1  UNL1        0.0357
     10 C          60.8849   87.0249    8.8887 C.3     1  UNL1        0.1254
     11 O          60.4690   85.8499    8.0542 O.3     1  UNL1       -0.3786
     12 H          59.8198   86.1366    7.3929 H       1  UNL1        0.2111
     13 C          65.1131   91.8324   15.2142 C.ar    1  UNL1        0.1660
     14 C          65.4982   91.9863   13.7727 C.ar    1  UNL1        0.0392
     15 C          64.7935   91.1850   12.7184 C.ar    1  UNL1        0.0033
     16 C          63.7037   90.2299   13.1057 C.ar    1  UNL1        0.0024
     17 C          63.3186   90.0759   14.5472 C.ar    1  UNL1        0.0328
     18 C          64.0233   90.8771   15.6015 C.ar    1  UNL1        0.1738
     19 F          63.6382   90.7231   17.0430 F       1  UNL1       -0.2010
     20 C          67.2784   92.9428   16.1242 C.3     1  UNL1        0.2526
     21 O          65.8177   92.6336   16.2685 O.3     1  UNL1       -0.4692
     22 C          61.7164   85.9487    9.5215 C.ar    1  UNL1        0.0086
     23 C          62.8602   85.3418    8.7643 C.ar    1  UNL1        0.0190
     24 C          63.6916   84.2656    9.3971 C.ar    1  UNL1        0.0986
     25 N          63.3793   83.7962   10.7871 N.ar    1  UNL1       -0.2423
     26 C          62.2355   84.4031   11.5443 C.ar    1  UNL1        0.0986
     27 C          61.4040   85.4793   10.9115 C.ar    1  UNL1        0.0190
@<TRIPOS>BOND
     1    20    21    1
     2    21    13    1
     3    13    14   ar
     4    14    15   ar
     5    15    16   ar
     6    16     1    1
     7     1     2   ar
     8     2     3   ar
     9     3     4   ar
    10     4     5   ar
    11     5     6   ar
    12     5     7    1
    13     7     8    1
    14     8     9    1
    15     9    10    1
    16    10    11    1
    17    10    22    1
    18    22    23   ar
    19    23    24   ar
    20    24    25   ar
    21    25    26   ar
    22    26    27   ar
    23    16    17   ar
    24    17    18   ar
    25    18    19    1
    26    18    13   ar
    27     6     1   ar
    28    27    22   ar
    29    10     4    1
    30    11    12    1
@<TRIPOS>MOLECULE
*****
 27 30 0 0 0
SMALL
GASTEIGER

@<TRIPOS>ATOM
      1 C          62.9593   85.3373   12.3182 C.ar    1  UNL1       -0.0003
      2 C          62.1747   86.2338   11.4068 C.ar    1  UNL1       -0.0003
      3 C          62.2176   87.7208   11.5983 C.ar    1  UNL1       -0.0020
      4 C          63.0451   88.3114   12.7012 C.ar    1  UNL1        0.0016
      5 C          63.8297   87.4149   13.6126 C.ar    1  UNL1       -0.0237
      6 C          63.7868   85.9279   13.4211 C.ar    1  UNL1       -0.0045
      7 C          64.6572   88.0055   14.7156 C.3     1  UNL1        0.0262
      8 C          64.7001   89.4926   14.9071 C.3     1  UNL1        0.0078
      9 C          63.9155   90.3892   13.9957 C.3     1  UNL1        0.0357
     10 C          63.0880   89.7986   12.8927 C.3     1  UNL1        0.1254
     11 O          62.8100   91.2564   12.6749 O.3     1  UNL1       -0.3786
     12 H          63.2923   91.7796   13.3342 H       1  UNL1        0.2111
     13 C          62.8306   80.8759   11.7437 C.ar    1  UNL1        0.1660
     14 C          63.3636   81.7574   10.6534 C.ar    1  UNL1        0.0392
     15 C          63.4065   83.2446   10.8449 C.ar    1  UNL1        0.0033
     16 C          62.9164   83.8501   12.1267 C.ar    1  UNL1        0.0024
     17 C          62.3834   82.9686   13.2170 C.ar    1  UNL1        0.0328
     18 C          62.3405   81.4815   13.0256 C.ar    1  UNL1        0.1738
     19 F          61.8075   80.6000   14.1159 F       1  UNL1       -0.2010
     20 C          62.8098   78.8098   10.1687 C.3     1  UNL1        0.2526
     21 O          62.7877   79.3888   11.5523 O.3     1  UNL1       -0.4692
     22 C          62.1640   89.7143   11.7142 C.ar    1  UNL1        0.0086
     23 C          60.6799   89.6642   11.9267 C.ar    1  UNL1        0.0190
     24 C          59.7560   89.5799   10.7481 C.ar    1  UNL1        0.0986
     25 N          60.3159   89.5457    9.3570 N.ar    1  UNL1       -0.2423
     26 C          61.7999   89.5958    9.1445 C.ar    1  UNL1        0.0986
     27 C          62.7240   89.6801   10.3230 C.ar    1  UNL1        0.0190
@<TRIPOS>BOND
     1    20    21    1
     2    21    13    1
     3    13    14   ar
     4    14    15   ar
     5    15    16   ar
     6    16     1    1
     7     1     2   ar
     8     2     3   ar
     9     3     4   ar
    10     4     5   ar
    11     5     6   ar
    12     5     7    1
    13     7     8    1
    14     8     9    1
    15     9    10    1
    16    10    11    1
    17    10    22    1
    18    22    23   ar
    19    23    24   ar
    20    24    25   ar
    21    25    26   ar
    22    26    27   ar
    23    16    17   ar
    24    17    18   ar
    25    18    19    1
    26    18    13   ar
    27     6     1   ar
    28    27    22   ar
    29    10     4    1
    30    11    12    1
@<TRIPOS>MOLECULE
*****
 27 30 0 0 0
SMALL
GASTEIGER

@<TRIPOS>ATOM
      1 C          63.1159   89.4967   12.2406 C.ar    1  UNL1       -0.0003
      2 C          63.3602   88.0201   12.1420 C.ar    1  UNL1       -0.0003
      3 C          62.6347   87.2071   11.1111 C.ar    1  UNL1       -0.0020
      4 C          61.6649   87.8708   10.1789 C.ar    1  UNL1        0.0016
      5 C          61.4206   89.3474   10.2775 C.ar    1  UNL1       -0.0237
      6 C          62.1461   90.1604   11.3083 C.ar    1  UNL1       -0.0045
      7 C          60.4509   90.0111    9.3452 C.3     1  UNL1        0.0262
      8 C          59.7254   89.1981    8.3144 C.3     1  UNL1        0.0078
      9 C          59.9697   87.7214    8.2157 C.3     1  UNL1        0.0357
     10 C          60.9395   87.0577    9.1480 C.3     1  UNL1        0.1254
     11 O          60.4974   85.8711    8.3439 O.3     1  UNL1       -0.3786
     12 H          59.8493   86.1538    7.6798 H       1  UNL1        0.2111
     13 C          65.2923   91.9359   15.3332 C.ar    1  UNL1        0.1660
     14 C          64.2285   90.9664   15.7553 C.ar    1  UNL1        0.0392
     15 C          63.5030   90.1533   14.7244 C.ar    1  UNL1        0.0033
     16 C          63.8414   90.3098   13.2715 C.ar    1  UNL1        0.0024
     17 C          64.9052   91.2794   12.8494 C.ar    1  UNL1        0.0328
     18 C          65.6307   92.0924   13.8802 C.ar    1  UNL1        0.1738
     19 F          66.6945   93.0620   13.4581 F       1  UNL1       -0.2010
     20 C          67.4997   92.9524   16.2518 C.3     1  UNL1        0.2526
     21 O          66.0178   92.7490   16.3640 O.3     1  UNL1       -0.4692
     22 C          61.7557   85.9820    9.8009 C.ar    1  UNL1        0.0086
     23 C          61.4627   85.5713   11.2136 C.ar    1  UNL1        0.0190
     24 C          62.2790   84.4955   11.8665 C.ar    1  UNL1        0.0986
     25 N          63.3883   83.8304   11.1069 N.ar    1  UNL1       -0.2423
     26 C          63.6813   84.2410    9.6944 C.ar    1  UNL1        0.0986
     27 C          62.8650   85.3168    9.0413 C.ar    1  UNL1        0.0190
@<TRIPOS>BOND
     1    20    21    1
     2    21    13    1
     3    13    14   ar
     4    14    15   ar
     5    15    16   ar
     6    16     1    1
     7     1     2   ar
     8     2     3   ar
     9     3     4   ar
    10     4     5   ar
    11     5     6   ar
    12     5     7    1
    13     7     8    1
    14     8     9    1
    15     9    10    1
    16    10    11    1
    17    10    22    1
    18    22    23   ar
    19    23    24   ar
    20    24    25   ar
    21    25    26   ar
    22    26    27   ar
    23    16    17   ar
    24    17    18   ar
    25    18    19    1
    26    18    13   ar
    27     6     1   ar
    28    27    22   ar
    29    10     4    1
    30    11    12    1
@<TRIPOS>MOLECULE
*****
 27 30 0 0 0
SMALL
GASTEIGER

@<TRIPOS>ATOM
      1 C          63.0216   89.8057   11.2614 C.ar    1  UNL1       -0.0003
      2 C          63.2843   88.3289   11.2674 C.ar    1  UNL1       -0.0003
      3 C          62.4718   87.4191   10.3944 C.ar    1  UNL1       -0.0020
      4 C          61.3967   87.9861    9.5154 C.ar    1  UNL1        0.0016
      5 C          61.1340   89.4629    9.5095 C.ar    1  UNL1       -0.0237
      6 C          61.9465   90.3727   10.3825 C.ar    1  UNL1       -0.0045
      7 C          60.0588   90.0299    8.6305 C.3     1  UNL1        0.0262
      8 C          59.2464   89.1201    7.7576 C.3     1  UNL1        0.0078
      9 C          59.5090   87.6433    7.7635 C.3     1  UNL1        0.0357
     10 C          60.5842   87.0763    8.6424 C.3     1  UNL1        0.1254
     11 O          60.0848   85.8178    7.9968 O.3     1  UNL1       -0.3786
     12 H          59.3653   86.0328    7.3829 H       1  UNL1        0.2111
     13 C          65.4591   92.5352   13.8804 C.ar    1  UNL1        0.1660
     14 C          64.7549   91.3535   14.4786 C.ar    1  UNL1        0.0392
     15 C          63.9424   90.4437   13.6056 C.ar    1  UNL1        0.0033
     16 C          63.8341   90.7155   12.1345 C.ar    1  UNL1        0.0024
     17 C          64.5382   91.8972   11.5362 C.ar    1  UNL1        0.0328
     18 C          65.3507   92.8070   12.4092 C.ar    1  UNL1        0.1738
     19 F          66.0548   93.9887   11.8110 F       1  UNL1       -0.2010
     20 C          67.1305   92.8710   15.8408 C.3     1  UNL1        0.2526
     21 O          66.2715   93.4450   14.7533 O.3     1  UNL1       -0.4692
     22 C          61.4859   86.0722    9.2971 C.ar    1  UNL1        0.0086
     23 C          62.5887   85.4288    8.5098 C.ar    1  UNL1        0.0190
     24 C          63.4904   84.4247    9.1646 C.ar    1  UNL1        0.0986
     25 N          63.2894   84.0640   10.6067 N.ar    1  UNL1       -0.2423
     26 C          62.1866   84.7074   11.3939 C.ar    1  UNL1        0.0986
     27 C          61.2848   85.7115   10.7392 C.ar    1  UNL1        0.0190
@<TRIPOS>BOND
     1    20    21    1
     2    21    13    1
     3    13    14   ar
     4    14    15   ar
     5    15    16   ar
     6    16     1    1
     7     1     2   ar
     8     2     3   ar
     9     3     4   ar
    10     4     5   ar
    11     5     6   ar
    12     5     7    1
    13     7     8    1
    14     8     9    1
    15     9    10    1
    16    10    11    1
    17    10    22    1
    18    22    23   ar
    19    23    24   ar
    20    24    25   ar
    21    25    26   ar
    22    26    27   ar
    23    16    17   ar
    24    17    18   ar
    25    18    19    1
    26    18    13   ar
    27     6     1   ar
    28    27    22   ar
    29    10     4    1
    30    11    12    1
@<TRIPOS>MOLECULE
*****
 27 30 0 0 0
SMALL
GASTEIGER

@<TRIPOS>ATOM
      1 C          63.2759   86.3957   12.8249 C.ar    1  UNL1       -0.0003
      2 C          63.9114   87.4030   13.7367 C.ar    1  UNL1       -0.0003
      3 C          63.8575   88.8626   13.3954 C.ar    1  UNL1       -0.0020
      4 C          63.1682   89.3149   12.1423 C.ar    1  UNL1        0.0016
      5 C          62.5327   88.3076   11.2305 C.ar    1  UNL1       -0.0237
      6 C          62.5866   86.8480   11.5718 C.ar    1  UNL1       -0.0045
      7 C          61.8434   88.7600    9.9774 C.3     1  UNL1        0.0262
      8 C          61.7895   90.2196    9.6361 C.3     1  UNL1        0.0078
      9 C          62.4250   91.2270   10.5480 C.3     1  UNL1        0.0357
     10 C          63.1143   90.7747   11.8011 C.3     1  UNL1        0.1254
     11 O          63.3253   92.2559   11.9079 O.3     1  UNL1       -0.3786
     12 H          62.9213   92.6960   11.1436 H       1  UNL1        0.2111
     13 C          63.4374   82.0166   13.8485 C.ar    1  UNL1        0.1660
     14 C          63.7404   83.0439   14.8986 C.ar    1  UNL1        0.0392
     15 C          63.6866   84.5036   14.5574 C.ar    1  UNL1        0.0033
     16 C          63.3297   84.9359   13.1661 C.ar    1  UNL1        0.0024
     17 C          63.0267   83.9086   12.1160 C.ar    1  UNL1        0.0328
     18 C          63.0806   82.4489   12.4572 C.ar    1  UNL1        0.1738
     19 F          62.7776   81.4216   11.4071 F       1  UNL1       -0.2010
     20 C          62.3419   79.6609   13.8347 C.3     1  UNL1        0.2526
     21 O          63.4912   80.5569   14.1897 O.3     1  UNL1       -0.4692
     22 C          63.8769   90.8368   13.0912 C.ar    1  UNL1        0.0086
     23 C          65.3490   91.1248   13.0793 C.ar    1  UNL1        0.0190
     24 C          66.1115   91.1868   14.3695 C.ar    1  UNL1        0.0986
     25 N          65.4021   90.9609   15.6717 N.ar    1  UNL1       -0.2423
     26 C          63.9301   90.6730   15.6836 C.ar    1  UNL1        0.0986
     27 C          63.1675   90.6109   14.3934 C.ar    1  UNL1        0.0190
@<TRIPOS>BOND
     1    20    21    1
     2    21    13    1
     3    13    14   ar
     4    14    15   ar
     5    15    16   ar
     6    16     1    1
     7     1     2   ar
     8     2     3   ar
     9     3     4   ar
    10     4     5   ar
    11     5     6   ar
    12     5     7    1
    13     7     8    1
    14     8     9    1
    15     9    10    1
    16    10    11    1
    17    10    22    1
    18    22    23   ar
    19    23    24   ar
    20    24    25   ar
    21    25    26   ar
    22    26    27   ar
    23    16    17   ar
    24    17    18   ar
    25    18    19    1
    26    18    13   ar
    27     6     1   ar
    28    27    22   ar
    29    10     4    1
    30    11    12    1
