@<TRIPOS>MOLECULE
*****
 34 38 0 0 0
SMALL
GASTEIGER

@<TRIPOS>ATOM
      1 C          72.5845   76.6953   12.8290 C.ar    1  UNL1        0.1317
      2 C          71.5210   77.7436   12.6877 C.ar    1  UNL1        0.0346
      3 C          71.5060   78.6394   11.4847 C.ar    1  UNL1        0.0121
      4 C          72.5545   78.4868   10.4229 C.ar    1  UNL1        0.1076
      5 C          73.6180   77.4385   10.5642 C.ar    1  UNL1        0.1080
      6 N          73.6330   76.5428   11.7672 N.ar    1  UNL1       -0.2289
      7 C          71.9182   71.7999   17.6082 C.3     1  UNL1        0.0104
      8 C          72.6594   72.2162   18.8441 C.3     1  UNL1        0.0325
      9 C          73.3856   73.5283   18.8769 C.3     1  UNL1        0.1420
     10 O          73.3706   74.4241   17.6740 O.3     1  UNL1       -0.3584
     11 C          72.6294   74.0078   16.4381 C.3     1  UNL1        0.0961
     12 C          71.8882   73.5916   15.2022 C.3     1  UNL1        0.0487
     13 C          71.8733   74.4874   13.9992 C.3     1  UNL1        0.0946
     14 N          72.5995   75.7995   14.0320 N.pl3   1  UNL1       -0.2931
     15 C          73.3406   76.2157   15.2679 C.3     1  UNL1        0.0946
     16 C          73.3556   75.3199   16.4710 C.3     1  UNL1        0.0487
     17 C          71.9033   72.6957   16.4053 C.3     1  UNL1        0.0278
     18 C          71.1920   70.4878   17.5754 C.3     1  UNL1        0.0419
     19 O          72.7688   68.4830   17.0809 O.co2   1  UNL1       -0.5492
     20 C          71.6567   69.3962   16.6575 C.2     1  UNL1        0.0503
     21 O          71.0092   69.2178   15.3163 O.co2   1  UNL1       -0.5492
     22 C          72.5395   79.3827    9.2198 C.2     1  UNL1        0.3767
     23 N          73.1607   79.0811    7.8882 N.2     1  UNL1       -0.0308
     24 C          72.9058   80.2494    6.9826 C.2     1  UNL1        0.2320
     25 C          73.2821   80.5134    5.5548 C.2     1  UNL1        0.0537
     26 C          72.8797   81.8011    4.8989 C.2     1  UNL1        0.0714
     27 C          72.1011   82.8246    5.6708 C.2     1  UNL1       -0.0133
     28 C          71.7247   82.5606    7.0986 C.3     1  UNL1        0.1037
     29 C          72.1271   81.2730    7.7545 C.2     1  UNL1        0.2178
     30 N          71.9007   80.7373    9.1372 N.2     1  UNL1       -0.0347
     31 C          73.2561   82.0651    3.4711 C.3     1  UNL1        0.4184
     32 F          73.6324   82.3291    2.0433 F       1  UNL1       -0.1659
     33 F          72.8980   83.5114    3.6441 F       1  UNL1       -0.1659
     34 F          73.6142   80.6188    3.2980 F       1  UNL1       -0.1659
@<TRIPOS>UNITY_ATOM_ATTR
19 1
charge -1
@<TRIPOS>BOND
     1    19    20   ar
     2    20    21   ar
     3    20    18    1
     4    18     7    1
     5     7     8    1
     6     8     9    1
     7     9    10    1
     8    10    11    1
     9    11    12    1
    10    12    13    1
    11    13    14    1
    12    14     1    1
    13     1     2   ar
    14     2     3   ar
    15     3     4   ar
    16     4    22    1
    17    22    23    2
    18    23    24    1
    19    24    25    2
    20    25    26    1
    21    26    31    1
    22    31    32    1
    23    31    33    1
    24    31    34    1
    25    26    27    2
    26    27    28    1
    27    28    29    1
    28    29    30    2
    29     4     5   ar
    30     5     6   ar
    31    14    15    1
    32    15    16    1
    33    11    17    1
    34    17     7    1
    35    16    11    1
    36     6     1   ar
    37    30    22    1
    38    29    24    1
@<TRIPOS>MOLECULE
*****
 34 38 0 0 0
SMALL
GASTEIGER

@<TRIPOS>ATOM
      1 C          72.2285   77.1934   11.9946 C.ar    1  UNL1        0.1317
      2 C          71.2394   76.9726   13.1005 C.ar    1  UNL1        0.0346
      3 C          71.2518   75.6863   13.8719 C.ar    1  UNL1        0.0121
      4 C          72.2532   74.6207   13.5375 C.ar    1  UNL1        0.1076
      5 C          73.2423   74.8416   12.4316 C.ar    1  UNL1        0.1080
      6 N          73.2299   76.1279   11.6602 N.ar    1  UNL1       -0.2289
      7 C          72.0809   82.3148    7.4120 C.3     1  UNL1        0.0104
      8 C          72.1668   83.6250    8.1371 C.3     1  UNL1        0.0325
      9 C          72.2651   83.6490    9.6337 C.3     1  UNL1        0.1420
     10 O          72.2774   82.3627   10.4052 O.3     1  UNL1       -0.3584
     11 C          72.1915   81.0525    9.6801 C.3     1  UNL1        0.0961
     12 C          72.1056   79.7421    8.9550 C.3     1  UNL1        0.0487
     13 C          72.1179   78.4558    9.7265 C.3     1  UNL1        0.0946
     14 N          72.2162   78.4798   11.2231 N.pl3   1  UNL1       -0.2931
     15 C          72.3021   79.7900   11.9482 C.3     1  UNL1        0.0946
     16 C          72.2897   81.0764   11.1767 C.3     1  UNL1        0.0487
     17 C          72.0932   81.0285    8.1835 C.3     1  UNL1        0.0278
     18 C          71.9827   82.2908    5.9154 C.3     1  UNL1        0.0419
     19 O          70.4135   80.3818    5.1132 O.co2   1  UNL1       -0.5492
     20 C          71.7826   80.9890    5.1977 C.2     1  UNL1        0.0503
     21 O          72.9515   80.2943    4.5645 O.co2   1  UNL1       -0.5492
     22 C          72.2656   73.3344   14.3090 C.2     1  UNL1        0.3767
     23 N          71.1925   72.8549   15.2410 N.2     1  UNL1       -0.0308
     24 C          71.6169   71.5259   15.7919 C.2     1  UNL1        0.2320
     25 C          70.9599   70.5828   16.7558 C.2     1  UNL1        0.0537
     26 C          71.6384   69.2978   17.1281 C.2     1  UNL1        0.0714
     27 C          72.9737   68.9559   16.5366 C.2     1  UNL1       -0.0133
     28 C          73.6307   69.8989   15.5727 C.3     1  UNL1        0.1037
     29 C          72.9523   71.1839   15.2004 C.2     1  UNL1        0.2178
     30 N          73.3532   72.3016   14.2839 N.2     1  UNL1       -0.0347
     31 C          70.9814   68.3547   18.0920 C.3     1  UNL1        0.4184
     32 F          70.3244   67.4117   19.0558 F       1  UNL1       -0.1659
     33 F          70.4636   69.5211   18.8803 F       1  UNL1       -0.1659
     34 F          71.4992   67.1883   17.3037 F       1  UNL1       -0.1659
@<TRIPOS>UNITY_ATOM_ATTR
19 1
charge -1
@<TRIPOS>BOND
     1    19    20   ar
     2    20    21   ar
     3    20    18    1
     4    18     7    1
     5     7     8    1
     6     8     9    1
     7     9    10    1
     8    10    11    1
     9    11    12    1
    10    12    13    1
    11    13    14    1
    12    14     1    1
    13     1     2   ar
    14     2     3   ar
    15     3     4   ar
    16     4    22    1
    17    22    23    2
    18    23    24    1
    19    24    25    2
    20    25    26    1
    21    26    31    1
    22    31    32    1
    23    31    33    1
    24    31    34    1
    25    26    27    2
    26    27    28    1
    27    28    29    1
    28    29    30    2
    29     4     5   ar
    30     5     6   ar
    31    14    15    1
    32    15    16    1
    33    11    17    1
    34    17     7    1
    35    16    11    1
    36     6     1   ar
    37    30    22    1
    38    29    24    1
