@<TRIPOS>MOLECULE
*****
 24 26 0 0 0
SMALL
GASTEIGER

@<TRIPOS>ATOM
      1 C          66.4408   93.3717   11.0805 C.ar    1  UNL1        0.3976
      2 C          65.3183   92.3947   11.2687 C.ar    1  UNL1        0.1780
      3 N          65.1662   92.1409   12.7392 N.ar    1  UNL1       -0.2712
      4 C          66.1948   92.9611   13.4599 C.ar    1  UNL1        0.3060
      5 N          66.9825   93.7218   12.4348 N.ar    1  UNL1       -0.1275
      6 O          66.2811   92.9093   14.9565 O.3     1  UNL1       -0.4437
      7 C          65.3390   92.0373   15.7324 C.3     1  UNL1        0.2538
      8 C          64.3105   91.2171   15.0116 C.3     1  UNL1        0.2319
      9 C          64.2241   91.2689   13.5150 C.3     1  UNL1        0.1580
     10 O          66.4842   95.2531    9.2893 O.2     1  UNL1        0.0432
     11 N          66.9349   93.9051    9.7685 N.pl3   1  UNL1        0.1030
     12 O          67.8797   93.0905    8.9357 O.co2   1  UNL1       -0.5746
     13 O          63.3683   90.3451   15.7876 O.3     1  UNL1       -0.4733
     14 C          63.5510   88.8563   15.7861 C.ar    1  UNL1        0.1388
     15 C          63.0122   88.0335   16.9187 C.ar    1  UNL1        0.0400
     16 C          63.1950   86.5446   16.9172 C.ar    1  UNL1        0.0403
     17 C          63.9164   85.8786   15.7833 C.ar    1  UNL1        0.1470
     18 C          64.4552   86.7015   14.6507 C.ar    1  UNL1        0.0403
     19 C          64.2725   88.1903   14.6521 C.ar    1  UNL1        0.0400
     20 O          64.0991   84.3898   15.7819 O.3     1  UNL1       -0.4045
     21 C          63.4316   83.5533   14.7308 C.3     1  UNL1        0.5753
     22 F          62.7642   82.7167   13.6798 F       1  UNL1       -0.1328
     23 F          62.1581   83.5739   15.5231 F       1  UNL1       -0.1328
     24 F          64.7052   83.5326   13.9385 F       1  UNL1       -0.1328
@<TRIPOS>UNITY_ATOM_ATTR
11 1
charge 1
12 1
charge -1
@<TRIPOS>BOND
     1    10    11    2
     2    11    12    1
     3    11     1    1
     4     1     2   ar
     5     2     3   ar
     6     3     4   ar
     7     4     5   ar
     8     4     6    1
     9     6     7    1
    10     7     8    1
    11     8    13    1
    12    13    14    1
    13    14    15   ar
    14    15    16   ar
    15    16    17   ar
    16    17    20    1
    17    20    21    1
    18    21    22    1
    19    21    23    1
    20    21    24    1
    21    17    18   ar
    22    18    19   ar
    23     8     9    1
    24     5     1   ar
    25    19    14   ar
    26     9     3    1
@<TRIPOS>MOLECULE
*****
 24 26 0 0 0
SMALL
GASTEIGER

@<TRIPOS>ATOM
      1 C          60.5266   86.9125    9.1322 C.ar    1  UNL1        0.3976
      2 C          60.6662   88.3655    9.4773 C.ar    1  UNL1        0.1780
      3 N          61.6025   88.4770   10.6439 N.ar    1  UNL1       -0.2712
      4 C          62.0414   87.0928   11.0198 C.ar    1  UNL1        0.3060
      5 N          61.3765   86.1259   10.0855 N.ar    1  UNL1       -0.1275
      6 O          62.9899   86.8917   12.1643 O.3     1  UNL1       -0.4437
      7 C          63.4994   88.0748   12.9329 C.3     1  UNL1        0.2538
      8 C          63.0604   89.4590   12.5569 C.3     1  UNL1        0.2319
      9 C          62.1119   89.6601   11.4125 C.3     1  UNL1        0.1580
     10 O          58.2764   86.8249    7.8364 O.2     1  UNL1        0.0432
     11 N          59.6848   86.3455    8.0276 N.pl3   1  UNL1        0.1030
     12 O          60.2514   85.2992    7.1143 O.co2   1  UNL1       -0.5746
     13 O          63.5700   90.6421   13.3256 O.3     1  UNL1       -0.4733
     14 C          64.5263   91.6005   12.6800 C.ar    1  UNL1        0.1388
     15 C          64.4316   91.8780   11.2090 C.ar    1  UNL1        0.0400
     16 C          65.3881   92.8364   10.5634 C.ar    1  UNL1        0.0403
     17 C          66.4392   93.5173   11.3890 C.ar    1  UNL1        0.1470
     18 C          66.5339   93.2398   12.8600 C.ar    1  UNL1        0.0403
     19 C          65.5775   92.2814   13.5056 C.ar    1  UNL1        0.0400
     20 O          67.3955   94.4757   10.7434 O.3     1  UNL1       -0.4045
     21 C          67.5647   94.4769    9.2530 C.3     1  UNL1        0.5753
     22 F          67.7338   94.4781    7.7626 F       1  UNL1       -0.1328
     23 F          68.5673   93.3670    9.3659 F       1  UNL1       -0.1328
     24 F          66.5620   95.5869    9.1401 F       1  UNL1       -0.1328
@<TRIPOS>UNITY_ATOM_ATTR
11 1
charge 1
12 1
charge -1
@<TRIPOS>BOND
     1    10    11    2
     2    11    12    1
     3    11     1    1
     4     1     2   ar
     5     2     3   ar
     6     3     4   ar
     7     4     5   ar
     8     4     6    1
     9     6     7    1
    10     7     8    1
    11     8    13    1
    12    13    14    1
    13    14    15   ar
    14    15    16   ar
    15    16    17   ar
    16    17    20    1
    17    20    21    1
    18    21    22    1
    19    21    23    1
    20    21    24    1
    21    17    18   ar
    22    18    19   ar
    23     8     9    1
    24     5     1   ar
    25    19    14   ar
    26     9     3    1
@<TRIPOS>MOLECULE
*****
 24 26 0 0 0
SMALL
GASTEIGER

@<TRIPOS>ATOM
      1 C          63.7804   85.0411   14.7995 C.ar    1  UNL1        0.3976
      2 C          64.2112   86.1388   13.8726 C.ar    1  UNL1        0.1780
      3 N          63.9802   87.4486   14.5662 N.ar    1  UNL1       -0.2712
      4 C          63.4066   87.1604   15.9219 C.ar    1  UNL1        0.3060
      5 N          63.2832   85.6724   16.0661 N.ar    1  UNL1       -0.1275
      6 O          63.0709   88.2900   16.8498 O.3     1  UNL1       -0.4437
      7 C          63.3088   89.7079   16.4221 C.3     1  UNL1        0.2538
      8 C          63.8824   89.9961   15.0664 C.3     1  UNL1        0.2319
      9 C          64.2181   88.8665   14.1384 C.3     1  UNL1        0.1580
     10 O          64.6187   83.0665   13.3338 O.2     1  UNL1        0.0432
     11 N          63.8369   83.5702   14.5107 N.pl3   1  UNL1        0.1030
     12 O          63.1116   82.6031   15.3987 O.co2   1  UNL1       -0.5746
     13 O          64.1202   91.4141   14.6387 O.3     1  UNL1       -0.4733
     14 C          65.1884   91.7249   13.6326 C.ar    1  UNL1        0.1388
     15 C          66.6318   91.7028   14.0402 C.ar    1  UNL1        0.0400
     16 C          67.7001   92.0136   13.0340 C.ar    1  UNL1        0.0403
     17 C          67.3249   92.3464   11.6204 C.ar    1  UNL1        0.1470
     18 C          65.8815   92.3685   11.2128 C.ar    1  UNL1        0.0403
     19 C          64.8133   92.0577   12.2189 C.ar    1  UNL1        0.0400
     20 O          68.3931   92.6572   10.6143 O.3     1  UNL1       -0.4045
     21 C          68.0391   93.3598    9.3372 C.3     1  UNL1        0.5753
     22 F          67.6850   94.0624    8.0600 F       1  UNL1       -0.1328
     23 F          67.7377   94.6103   10.1087 F       1  UNL1       -0.1328
     24 F          68.3404   92.1092    8.5656 F       1  UNL1       -0.1328
@<TRIPOS>UNITY_ATOM_ATTR
11 1
charge 1
12 1
charge -1
@<TRIPOS>BOND
     1    10    11    2
     2    11    12    1
     3    11     1    1
     4     1     2   ar
     5     2     3   ar
     6     3     4   ar
     7     4     5   ar
     8     4     6    1
     9     6     7    1
    10     7     8    1
    11     8    13    1
    12    13    14    1
    13    14    15   ar
    14    15    16   ar
    15    16    17   ar
    16    17    20    1
    17    20    21    1
    18    21    22    1
    19    21    23    1
    20    21    24    1
    21    17    18   ar
    22    18    19   ar
    23     8     9    1
    24     5     1   ar
    25    19    14   ar
    26     9     3    1
@<TRIPOS>MOLECULE
*****
 24 26 0 0 0
SMALL
GASTEIGER

@<TRIPOS>ATOM
      1 C          66.3610   92.2103   14.1023 C.ar    1  UNL1        0.3976
      2 C          65.3137   91.2561   14.5949 C.ar    1  UNL1        0.1780
      3 N          64.3572   90.9961   13.4691 N.ar    1  UNL1       -0.2712
      4 C          64.8134   91.7895   12.2807 C.ar    1  UNL1        0.3060
      5 N          66.0518   92.5399   12.6721 N.ar    1  UNL1       -0.1275
      6 O          64.0422   91.7262   10.9957 O.3     1  UNL1       -0.4437
      7 C          62.8148   90.8694   10.8992 C.3     1  UNL1        0.2538
      8 C          62.3586   90.0759   12.0876 C.3     1  UNL1        0.2319
      9 C          63.1298   90.1393   13.3725 C.3     1  UNL1        0.1580
     10 O          67.2781   93.3382   16.2557 O.2     1  UNL1        0.0432
     11 N          67.5149   92.7416   14.9000 N.pl3   1  UNL1        0.1030
     12 O          68.9057   92.6762   14.3419 O.co2   1  UNL1       -0.5746
     13 O          61.1311   89.2191   11.9910 O.3     1  UNL1       -0.4733
     14 C          60.9871   88.2394   10.8643 C.ar    1  UNL1        0.1388
     15 C          60.2734   88.6411    9.6077 C.ar    1  UNL1        0.0400
     16 C          60.1294   87.6613    8.4810 C.ar    1  UNL1        0.0403
     17 C          60.6991   86.2799    8.6110 C.ar    1  UNL1        0.1470
     18 C          61.4129   85.8781    9.8677 C.ar    1  UNL1        0.0403
     19 C          61.5569   86.8578   10.9943 C.ar    1  UNL1        0.0400
     20 O          60.5551   85.3001    7.4844 O.3     1  UNL1       -0.4045
     21 C          61.7695   84.8284    6.7408 C.3     1  UNL1        0.5753
     22 F          62.9838   84.3567    5.9973 F       1  UNL1       -0.1328
     23 F          60.9007   83.9799    5.8604 F       1  UNL1       -0.1328
     24 F          62.6382   85.6770    7.6213 F       1  UNL1       -0.1328
@<TRIPOS>UNITY_ATOM_ATTR
11 1
charge 1
12 1
charge -1
@<TRIPOS>BOND
     1    10    11    2
     2    11    12    1
     3    11     1    1
     4     1     2   ar
     5     2     3   ar
     6     3     4   ar
     7     4     5   ar
     8     4     6    1
     9     6     7    1
    10     7     8    1
    11     8    13    1
    12    13    14    1
    13    14    15   ar
    14    15    16   ar
    15    16    17   ar
    16    17    20    1
    17    20    21    1
    18    21    22    1
    19    21    23    1
    20    21    24    1
    21    17    18   ar
    22    18    19   ar
    23     8     9    1
    24     5     1   ar
    25    19    14   ar
    26     9     3    1
@<TRIPOS>MOLECULE
*****
 24 26 0 0 0
SMALL
GASTEIGER

@<TRIPOS>ATOM
      1 C          63.8111   84.9332   14.6845 C.ar    1  UNL1        0.3976
      2 C          64.2841   86.0723   13.8308 C.ar    1  UNL1        0.1780
      3 N          64.0168   87.3489   14.5715 N.ar    1  UNL1       -0.2712
      4 C          63.3786   86.9989   15.8830 C.ar    1  UNL1        0.3060
      5 N          63.2515   85.5059   15.9529 N.ar    1  UNL1       -0.1275
      6 O          62.9956   88.0849   16.8443 O.3     1  UNL1       -0.4437
      7 C          63.2509   89.5208   16.4939 C.3     1  UNL1        0.2538
      8 C          63.8892   89.8709   15.1824 C.3     1  UNL1        0.2319
      9 C          64.2721   88.7849   14.2212 C.3     1  UNL1        0.1580
     10 O          63.4056   82.4438   15.3077 O.2     1  UNL1        0.0432
     11 N          63.8848   83.4771   14.3318 N.pl3   1  UNL1        0.1030
     12 O          64.4378   83.0544   13.0031 O.co2   1  UNL1       -0.5746
     13 O          64.1444   91.3069   14.8321 O.3     1  UNL1       -0.4733
     14 C          65.1767   91.6554   13.8011 C.ar    1  UNL1        0.1388
     15 C          64.7539   92.0094   12.4062 C.ar    1  UNL1        0.0400
     16 C          65.7862   92.3578   11.3752 C.ar    1  UNL1        0.0403
     17 C          67.2414   92.3522   11.7392 C.ar    1  UNL1        0.1470
     18 C          67.6642   91.9982   13.1341 C.ar    1  UNL1        0.0403
     19 C          66.6319   91.6498   14.1651 C.ar    1  UNL1        0.0400
     20 O          68.2737   92.7006   10.7082 O.3     1  UNL1       -0.4045
     21 C          67.8628   93.3786    9.4348 C.3     1  UNL1        0.5753
     22 F          67.4520   94.0565    8.1613 F       1  UNL1       -0.1328
     23 F          67.5727   94.6368   10.1982 F       1  UNL1       -0.1328
     24 F          68.1530   92.1204    8.6713 F       1  UNL1       -0.1328
@<TRIPOS>UNITY_ATOM_ATTR
11 1
charge 1
12 1
charge -1
@<TRIPOS>BOND
     1    10    11    2
     2    11    12    1
     3    11     1    1
     4     1     2   ar
     5     2     3   ar
     6     3     4   ar
     7     4     5   ar
     8     4     6    1
     9     6     7    1
    10     7     8    1
    11     8    13    1
    12    13    14    1
    13    14    15   ar
    14    15    16   ar
    15    16    17   ar
    16    17    20    1
    17    20    21    1
    18    21    22    1
    19    21    23    1
    20    21    24    1
    21    17    18   ar
    22    18    19   ar
    23     8     9    1
    24     5     1   ar
    25    19    14   ar
    26     9     3    1
@<TRIPOS>MOLECULE
*****
 24 26 0 0 0
SMALL
GASTEIGER

@<TRIPOS>ATOM
      1 C          63.2554   84.2565   12.3173 C.ar    1  UNL1        0.3976
      2 C          62.8096   85.5438   11.6896 C.ar    1  UNL1        0.1780
      3 N          63.2413   86.6690   12.5827 N.ar    1  UNL1       -0.2712
      4 C          63.9539   86.0770   13.7625 C.ar    1  UNL1        0.3060
      5 N          63.9626   84.5860   13.5984 N.ar    1  UNL1       -0.1275
      6 O          64.5028   86.9721   14.8337 O.3     1  UNL1       -0.4437
      7 C          64.3391   88.4591   14.7252 C.3     1  UNL1        0.2538
      8 C          63.6265   89.0511   13.5454 C.3     1  UNL1        0.2319
      9 C          63.0776   88.1560   12.4742 C.3     1  UNL1        0.1580
     10 O          62.1849   81.8972   12.5115 O.2     1  UNL1        0.0432
     11 N          63.0330   82.8811   11.7615 N.pl3   1  UNL1        0.1030
     12 O          63.6587   82.4897   10.4556 O.co2   1  UNL1       -0.5746
     13 O          63.4628   90.5382   13.4369 O.3     1  UNL1       -0.4733
     14 C          64.4809   91.3527   12.6953 C.ar    1  UNL1        0.1388
     15 C          64.2853   91.6519   11.2385 C.ar    1  UNL1        0.0400
     16 C          65.3034   92.4664   10.4968 C.ar    1  UNL1        0.0403
     17 C          66.5171   92.9817   11.2119 C.ar    1  UNL1        0.1470
     18 C          66.7127   92.6825   12.6687 C.ar    1  UNL1        0.0403
     19 C          65.6946   91.8680   13.4104 C.ar    1  UNL1        0.0400
     20 O          67.5352   93.7961   10.4703 O.3     1  UNL1       -0.4045
     21 C          68.1972   93.2356    9.2465 C.3     1  UNL1        0.5753
     22 F          68.8591   92.6750    8.0228 F       1  UNL1       -0.1328
     23 F          68.8243   92.1573   10.0797 F       1  UNL1       -0.1328
     24 F          67.5700   94.3138    8.4134 F       1  UNL1       -0.1328
@<TRIPOS>UNITY_ATOM_ATTR
11 1
charge 1
12 1
charge -1
@<TRIPOS>BOND
     1    10    11    2
     2    11    12    1
     3    11     1    1
     4     1     2   ar
     5     2     3   ar
     6     3     4   ar
     7     4     5   ar
     8     4     6    1
     9     6     7    1
    10     7     8    1
    11     8    13    1
    12    13    14    1
    13    14    15   ar
    14    15    16   ar
    15    16    17   ar
    16    17    20    1
    17    20    21    1
    18    21    22    1
    19    21    23    1
    20    21    24    1
    21    17    18   ar
    22    18    19   ar
    23     8     9    1
    24     5     1   ar
    25    19    14   ar
    26     9     3    1
@<TRIPOS>MOLECULE
*****
 24 26 0 0 0
SMALL
GASTEIGER

@<TRIPOS>ATOM
      1 C          63.5175   83.8502   13.5973 C.ar    1  UNL1        0.3976
      2 C          64.1442   84.8021   14.5726 C.ar    1  UNL1        0.1780
      3 N          63.9354   86.1960   14.0593 N.ar    1  UNL1       -0.2712
      4 C          63.1796   86.1057   12.7668 C.ar    1  UNL1        0.3060
      5 N          62.9213   84.6559   12.4813 N.ar    1  UNL1       -0.1275
      6 O          62.8242   87.3552   12.0169 O.3     1  UNL1       -0.4437
      7 C          63.2247   88.6950   12.5595 C.3     1  UNL1        0.2538
      8 C          63.9805   88.7853   13.8520 C.3     1  UNL1        0.2319
      9 C          64.3359   87.5358   14.6019 C.3     1  UNL1        0.1580
     10 O          64.3794   81.5175   12.8454 O.2     1  UNL1        0.0432
     11 N          63.4914   82.3552   13.7169 N.pl3   1  UNL1        0.1030
     12 O          62.5775   81.6980   14.7082 O.co2   1  UNL1       -0.5746
     13 O          64.3810   90.1252   14.3946 O.3     1  UNL1       -0.4733
     14 C          65.1285   91.0931   13.5262 C.ar    1  UNL1        0.1388
     15 C          66.5155   91.5224   13.9030 C.ar    1  UNL1        0.0400
     16 C          67.2630   92.4903   13.0345 C.ar    1  UNL1        0.0403
     17 C          66.6236   93.0290   11.7891 C.ar    1  UNL1        0.1470
     18 C          65.2366   92.5997   11.4123 C.ar    1  UNL1        0.0403
     19 C          64.4891   91.6318   12.2807 C.ar    1  UNL1        0.0400
     20 O          67.3712   93.9969   10.9207 O.3     1  UNL1       -0.4045
     21 C          67.8116   93.5863    9.5468 C.3     1  UNL1        0.5753
     22 F          68.2520   93.1758    8.1729 F       1  UNL1       -0.1328
     23 F          68.0668   92.1945   10.0445 F       1  UNL1       -0.1328
     24 F          67.5564   94.9781    9.0491 F       1  UNL1       -0.1328
@<TRIPOS>UNITY_ATOM_ATTR
11 1
charge 1
12 1
charge -1
@<TRIPOS>BOND
     1    10    11    2
     2    11    12    1
     3    11     1    1
     4     1     2   ar
     5     2     3   ar
     6     3     4   ar
     7     4     5   ar
     8     4     6    1
     9     6     7    1
    10     7     8    1
    11     8    13    1
    12    13    14    1
    13    14    15   ar
    14    15    16   ar
    15    16    17   ar
    16    17    20    1
    17    20    21    1
    18    21    22    1
    19    21    23    1
    20    21    24    1
    21    17    18   ar
    22    18    19   ar
    23     8     9    1
    24     5     1   ar
    25    19    14   ar
    26     9     3    1
@<TRIPOS>MOLECULE
*****
 24 26 0 0 0
SMALL
GASTEIGER

@<TRIPOS>ATOM
      1 C          61.4686   86.3682    8.3716 C.ar    1  UNL1        0.3976
      2 C          62.3446   86.4052    9.5887 C.ar    1  UNL1        0.1780
      3 N          61.9920   87.6319   10.3766 N.ar    1  UNL1       -0.2712
      4 C          60.8981   88.3532    9.6464 C.ar    1  UNL1        0.3060
      5 N          60.5746   87.5721    8.4073 N.ar    1  UNL1       -0.1275
      6 O          60.3378   89.6279   10.2041 O.3     1  UNL1       -0.4437
      7 C          60.8715   90.1815   11.4920 C.3     1  UNL1        0.2538
      8 C          61.9654   89.4602   12.2222 C.3     1  UNL1        0.2319
      9 C          62.5256   88.1854   11.6645 C.3     1  UNL1        0.1580
     10 O          62.7837   84.6996    6.8762 O.2     1  UNL1        0.0432
     11 N          61.4839   85.3126    7.3060 N.pl3   1  UNL1        0.1030
     12 O          60.1995   84.8700    6.6702 O.co2   1  UNL1       -0.5746
     13 O          62.4991   90.0138   13.5102 O.3     1  UNL1       -0.4733
     14 C          63.8181   90.7277   13.5303 C.ar    1  UNL1        0.1388
     15 C          64.7433   90.5613   14.6992 C.ar    1  UNL1        0.0400
     16 C          66.0624   91.2752   14.7193 C.ar    1  UNL1        0.0403
     17 C          66.4562   92.1556   13.5704 C.ar    1  UNL1        0.1470
     18 C          65.5311   92.3220   12.4015 C.ar    1  UNL1        0.0403
     19 C          64.2120   91.6081   12.3814 C.ar    1  UNL1        0.0400
     20 O          67.7753   92.8695   13.5905 O.3     1  UNL1       -0.4045
     21 C          68.4717   93.1218   14.8949 C.3     1  UNL1        0.5753
     22 F          69.1682   93.3741   16.1992 F       1  UNL1       -0.1328
     23 F          69.5627   92.1727   14.4960 F       1  UNL1       -0.1328
     24 F          67.3808   94.0709   15.2938 F       1  UNL1       -0.1328
@<TRIPOS>UNITY_ATOM_ATTR
11 1
charge 1
12 1
charge -1
@<TRIPOS>BOND
     1    10    11    2
     2    11    12    1
     3    11     1    1
     4     1     2   ar
     5     2     3   ar
     6     3     4   ar
     7     4     5   ar
     8     4     6    1
     9     6     7    1
    10     7     8    1
    11     8    13    1
    12    13    14    1
    13    14    15   ar
    14    15    16   ar
    15    16    17   ar
    16    17    20    1
    17    20    21    1
    18    21    22    1
    19    21    23    1
    20    21    24    1
    21    17    18   ar
    22    18    19   ar
    23     8     9    1
    24     5     1   ar
    25    19    14   ar
    26     9     3    1
@<TRIPOS>MOLECULE
*****
 24 26 0 0 0
SMALL
GASTEIGER

@<TRIPOS>ATOM
      1 C          63.2515   84.0074   12.8598 C.ar    1  UNL1        0.3976
      2 C          63.5147   85.4025   13.3439 C.ar    1  UNL1        0.1780
      3 N          62.9765   86.3577   12.3202 N.ar    1  UNL1       -0.2712
      4 C          62.3807   85.5529   11.2034 C.ar    1  UNL1        0.3060
      5 N          62.5507   84.1004   11.5369 N.ar    1  UNL1       -0.1275
      6 O          61.7604   86.2467   10.0271 O.3     1  UNL1       -0.4437
      7 C          61.7359   87.7453    9.9676 C.3     1  UNL1        0.2538
      8 C          62.3317   88.5501   11.0844 C.3     1  UNL1        0.2319
      9 C          62.9520   87.8563   12.2607 C.3     1  UNL1        0.1580
     10 O          63.6158   82.6955   15.0726 O.2     1  UNL1        0.0432
     11 N          63.6238   82.7416   13.5733 N.pl3   1  UNL1        0.1030
     12 O          64.0042   81.5218   12.7876 O.co2   1  UNL1       -0.5746
     13 O          62.3071   90.0488   11.0249 O.3     1  UNL1       -0.4733
     14 C          63.4671   90.8394   11.5534 C.ar    1  UNL1        0.1388
     15 C          63.8649   90.7154   12.9944 C.ar    1  UNL1        0.0400
     16 C          65.0249   91.5061   13.5229 C.ar    1  UNL1        0.0403
     17 C          65.7870   92.4208   12.6105 C.ar    1  UNL1        0.1470
     18 C          65.3891   92.5449   11.1695 C.ar    1  UNL1        0.0403
     19 C          64.2292   91.7542   10.6410 C.ar    1  UNL1        0.0400
     20 O          66.9469   93.2115   13.1390 O.3     1  UNL1       -0.4045
     21 C          67.7612   92.6772   14.2798 C.3     1  UNL1        0.5753
     22 F          68.5755   92.1428   15.4205 F       1  UNL1       -0.1328
     23 F          68.3472   91.6354   13.3735 F       1  UNL1       -0.1328
     24 F          67.1752   93.7190   15.1860 F       1  UNL1       -0.1328
@<TRIPOS>UNITY_ATOM_ATTR
11 1
charge 1
12 1
charge -1
@<TRIPOS>BOND
     1    10    11    2
     2    11    12    1
     3    11     1    1
     4     1     2   ar
     5     2     3   ar
     6     3     4   ar
     7     4     5   ar
     8     4     6    1
     9     6     7    1
    10     7     8    1
    11     8    13    1
    12    13    14    1
    13    14    15   ar
    14    15    16   ar
    15    16    17   ar
    16    17    20    1
    17    20    21    1
    18    21    22    1
    19    21    23    1
    20    21    24    1
    21    17    18   ar
    22    18    19   ar
    23     8     9    1
    24     5     1   ar
    25    19    14   ar
    26     9     3    1
