@<TRIPOS>MOLECULE
*****
 23 24 0 0 0
SMALL
GASTEIGER

@<TRIPOS>ATOM
      1 N          62.5521   85.6668   10.8992 N.am    1  UNL1       -0.2863
      2 C          62.9537   85.9697   12.3122 C.2     1  UNL1        0.3221
      3 O          63.1437   87.3920   12.7495 O.2     1  UNL1       -0.2491
      4 N          63.1654   84.8504   13.2881 N.ar    1  UNL1       -0.2334
      5 C          63.5662   84.9983   14.7260 C.ar    1  UNL1        0.2135
      6 N          63.6619   83.6260   15.3240 N.ar    1  UNL1       -0.2130
      7 C          63.3204   82.6299   14.2557 C.ar    1  UNL1        0.1004
      8 C          63.2491   81.1317   14.2661 C.ar    1  UNL1        0.0207
      9 C          62.8710   80.3902   13.0182 C.ar    1  UNL1        0.0016
     10 C          62.5641   81.1469   11.7600 C.ar    1  UNL1        0.0016
     11 C          62.6353   82.6452   11.7496 C.ar    1  UNL1        0.0193
     12 C          63.0135   83.3867   12.9974 C.ar    1  UNL1        0.0882
     13 H          62.4274   84.7334   10.6122 H       1  UNL1        0.1512
     14 N          63.8256   86.2915   15.4405 N.am    1  UNL1       -0.2206
     15 C          62.9335   86.7171   16.5686 C.2     1  UNL1        0.4076
     16 O          61.7818   85.8496   16.9824 O.2     1  UNL1       -0.2260
     17 H          64.5815   86.8608   15.1689 H       1  UNL1        0.1610
     18 O          63.1930   88.0103   17.2831 O.3     1  UNL1       -0.4303
     19 C          63.1284   89.3077   16.5329 C.3     1  UNL1        0.2574
     20 C          62.3404   86.7861    9.9233 C.3     1  UNL1        0.0911
     21 C          60.9571   87.1100    9.4419 C.3     1  UNL1        0.0213
     22 C          59.0292   86.7429    7.7394 C.3     1  UNL1        0.0001
     23 C          60.3610   86.3409    8.3003 C.3     1  UNL1        0.0018
@<TRIPOS>BOND
     1    22    23    1
     2    23    21    1
     3    21    20    1
     4    20     1    1
     5     1     2   am
     6     2     3    2
     7     2     4   am
     8     4     5   ar
     9     5    14    1
    10    14    15   am
    11    15    16    2
    12    15    18    1
    13    18    19    1
    14     5     6   ar
    15     6     7   ar
    16     7     8   ar
    17     8     9   ar
    18     9    10   ar
    19    10    11   ar
    20    11    12   ar
    21    12     4   ar
    22    12     7   ar
    23     1    13    1
    24    14    17    1
@<TRIPOS>MOLECULE
*****
 23 24 0 0 0
SMALL
GASTEIGER

@<TRIPOS>ATOM
      1 N          62.5667   85.5437   11.6374 N.am    1  UNL1       -0.2863
      2 C          62.6644   87.0044   11.9635 C.2     1  UNL1        0.3221
      3 O          63.4716   87.4570   13.1441 O.2     1  UNL1       -0.2491
      4 N          61.9550   88.0128   11.1091 N.ar    1  UNL1       -0.2334
      5 C          61.9607   89.4992   11.3107 C.ar    1  UNL1        0.2135
      6 N          61.1246   90.1168   10.2292 N.ar    1  UNL1       -0.2130
      7 C          60.6021   89.0121    9.3593 C.ar    1  UNL1        0.1004
      8 C          59.7254   89.0223    8.1423 C.ar    1  UNL1        0.0207
      9 C          59.3619   87.7321    7.4691 C.ar    1  UNL1        0.0016
     10 C          59.8751   86.4318    8.0128 C.ar    1  UNL1        0.0016
     11 C          60.7519   86.4216    9.2298 C.ar    1  UNL1        0.0193
     12 C          61.1154   87.7117    9.9031 C.ar    1  UNL1        0.0882
     13 H          62.0369   85.2466   10.8625 H       1  UNL1        0.1512
     14 N          62.6768   90.2382   12.4020 N.am    1  UNL1       -0.2206
     15 C          63.7474   91.2309   12.0582 C.2     1  UNL1        0.4076
     16 O          64.1021   91.4846   10.6229 O.2     1  UNL1       -0.2260
     17 H          62.4441   90.0717   13.3440 H       1  UNL1        0.1610
     18 O          64.4635   91.9699   13.1495 O.3     1  UNL1       -0.4303
     19 C          65.7004   92.7582   12.8350 C.3     1  UNL1        0.2574
     20 C          63.2761   84.5353   12.4918 C.3     1  UNL1        0.0911
     21 C          62.8191   83.1067   12.5019 C.3     1  UNL1        0.0213
     22 C          64.1854   82.6379   10.3424 C.3     1  UNL1        0.0001
     23 C          63.1883   82.1931   11.3709 C.3     1  UNL1        0.0018
@<TRIPOS>BOND
     1    22    23    1
     2    23    21    1
     3    21    20    1
     4    20     1    1
     5     1     2   am
     6     2     3    2
     7     2     4   am
     8     4     5   ar
     9     5    14    1
    10    14    15   am
    11    15    16    2
    12    15    18    1
    13    18    19    1
    14     5     6   ar
    15     6     7   ar
    16     7     8   ar
    17     8     9   ar
    18     9    10   ar
    19    10    11   ar
    20    11    12   ar
    21    12     4   ar
    22    12     7   ar
    23     1    13    1
    24    14    17    1
@<TRIPOS>MOLECULE
*****
 23 24 0 0 0
SMALL
GASTEIGER

@<TRIPOS>ATOM
      1 N          61.9611   86.9229   10.2849 N.am    1  UNL1       -0.2863
      2 C          62.4893   86.0838   11.4103 C.2     1  UNL1        0.3221
      3 O          62.3203   84.5936   11.3780 O.2     1  UNL1       -0.2491
      4 N          63.1864   86.7346   12.5681 N.ar    1  UNL1       -0.2334
      5 C          63.7640   86.0291   13.7592 C.ar    1  UNL1        0.2135
      6 N          64.3630   87.0637   14.6652 N.ar    1  UNL1       -0.2130
      7 C          64.1556   88.4086   14.0340 C.ar    1  UNL1        0.1004
      8 C          64.5349   89.7921   14.4721 C.ar    1  UNL1        0.0207
      9 C          64.1871   90.9722   13.6140 C.ar    1  UNL1        0.0016
     10 C          63.4599   90.7688   12.3179 C.ar    1  UNL1        0.0016
     11 C          63.0806   89.3853   11.8799 C.ar    1  UNL1        0.0193
     12 C          63.4284   88.2052   12.7379 C.ar    1  UNL1        0.0882
     13 H          62.0720   87.9009   10.3061 H       1  UNL1        0.1512
     14 N          63.7458   84.5490   14.0017 N.am    1  UNL1       -0.2206
     15 C          62.6728   83.9421   14.8562 C.2     1  UNL1        0.4076
     16 O          61.6179   84.8154   15.4684 O.2     1  UNL1       -0.2260
     17 H          64.4382   83.9758   13.5999 H       1  UNL1        0.1610
     18 O          62.6547   82.4620   15.0987 O.3     1  UNL1       -0.4303
     19 C          61.8085   81.5713   14.2380 C.3     1  UNL1        0.2574
     20 C          61.2639   86.2721    9.1271 C.3     1  UNL1        0.0911
     21 C          62.0639   85.5920    8.0560 C.3     1  UNL1        0.0213
     22 C          62.1730   84.3346    5.7851 C.3     1  UNL1        0.0001
     23 C          61.3735   85.0190    6.8539 C.3     1  UNL1        0.0018
@<TRIPOS>BOND
     1    22    23    1
     2    23    21    1
     3    21    20    1
     4    20     1    1
     5     1     2   am
     6     2     3    2
     7     2     4   am
     8     4     5   ar
     9     5    14    1
    10    14    15   am
    11    15    16    2
    12    15    18    1
    13    18    19    1
    14     5     6   ar
    15     6     7   ar
    16     7     8   ar
    17     8     9   ar
    18     9    10   ar
    19    10    11   ar
    20    11    12   ar
    21    12     4   ar
    22    12     7   ar
    23     1    13    1
    24    14    17    1
@<TRIPOS>MOLECULE
*****
 23 24 0 0 0
SMALL
GASTEIGER

@<TRIPOS>ATOM
      1 N          62.7583   90.0391   10.4891 N.am    1  UNL1       -0.2863
      2 C          63.0810   89.6093   11.8894 C.2     1  UNL1        0.3221
      3 O          62.4497   88.3734   12.4589 O.2     1  UNL1       -0.2491
      4 N          64.0349   90.4152   12.7204 N.ar    1  UNL1       -0.2334
      5 C          64.4515   90.1108   14.1289 C.ar    1  UNL1        0.2135
      6 N          65.4137   91.1745   14.5677 N.ar    1  UNL1       -0.2130
      7 C          65.5919   92.1362   13.4304 C.ar    1  UNL1        0.1004
      8 C          66.4200   93.3787   13.2870 C.ar    1  UNL1        0.0207
      9 C          66.3960   94.1517   12.0018 C.ar    1  UNL1        0.0016
     10 C          65.5438   93.6824   10.8601 C.ar    1  UNL1        0.0016
     11 C          64.7157   92.4400   11.0035 C.ar    1  UNL1        0.0193
     12 C          64.7397   91.6669   12.2887 C.ar    1  UNL1        0.0882
     13 H          63.1726   90.8502   10.1153 H       1  UNL1        0.1512
     14 N          63.9872   88.9472   14.9537 N.am    1  UNL1       -0.2206
     15 C          63.3062   89.1844   16.2689 C.2     1  UNL1        0.4076
     16 O          63.0894   90.5853   16.7594 O.2     1  UNL1       -0.2260
     17 H          64.1295   88.0277   14.6318 H       1  UNL1        0.1610
     18 O          62.8420   88.0207   17.0938 O.3     1  UNL1       -0.4303
     19 C          63.2251   86.6240   16.7029 C.3     1  UNL1        0.2574
     20 C          61.8044   89.2331    9.6581 C.3     1  UNL1        0.0911
     21 C          60.3384   89.5501    9.6797 C.3     1  UNL1        0.0213
     22 C          59.3561   89.8086   12.0711 C.3     1  UNL1        0.0001
     23 C          59.7746   90.4177   10.7657 C.3     1  UNL1        0.0018
@<TRIPOS>BOND
     1    22    23    1
     2    23    21    1
     3    21    20    1
     4    20     1    1
     5     1     2   am
     6     2     3    2
     7     2     4   am
     8     4     5   ar
     9     5    14    1
    10    14    15   am
    11    15    16    2
    12    15    18    1
    13    18    19    1
    14     5     6   ar
    15     6     7   ar
    16     7     8   ar
    17     8     9   ar
    18     9    10   ar
    19    10    11   ar
    20    11    12   ar
    21    12     4   ar
    22    12     7   ar
    23     1    13    1
    24    14    17    1
@<TRIPOS>MOLECULE
*****
 23 24 0 0 0
SMALL
GASTEIGER

@<TRIPOS>ATOM
      1 N          63.8278   86.9380   13.8314 N.am    1  UNL1       -0.2863
      2 C          63.8922   88.4140   13.5727 C.2     1  UNL1        0.3221
      3 O          64.6726   89.3036   14.4946 O.2     1  UNL1       -0.2491
      4 N          63.1763   89.0006   12.3923 N.ar    1  UNL1       -0.2334
      5 C          63.1501   90.4503   12.0082 C.ar    1  UNL1        0.2135
      6 N          62.3185   90.5860   10.7672 N.ar    1  UNL1       -0.2130
      7 C          61.8308   89.2202   10.3843 C.ar    1  UNL1        0.1004
      8 C          60.9725   88.7421    9.2509 C.ar    1  UNL1        0.0207
      9 C          60.6443   87.2842    9.1218 C.ar    1  UNL1        0.0016
     10 C          61.1744   86.3043   10.1262 C.ar    1  UNL1        0.0016
     11 C          62.0328   86.7824   11.2596 C.ar    1  UNL1        0.0193
     12 C          62.3610   88.2403   11.3887 C.ar    1  UNL1        0.0882
     13 H          63.3157   86.3541   13.2264 H       1  UNL1        0.1512
     14 N          63.8352   91.5681   12.7371 N.am    1  UNL1       -0.2206
     15 C          64.9394   92.3330   12.0696 C.2     1  UNL1        0.4076
     16 O          65.3585   91.9803   10.6732 O.2     1  UNL1       -0.2260
     17 H          63.5601   91.7996   13.6536 H       1  UNL1        0.1610
     18 O          65.6244   93.4508   12.7985 O.3     1  UNL1       -0.4303
     19 C          66.2797   94.5583   12.0277 C.3     1  UNL1        0.2574
     20 C          64.5437   86.3514   15.0119 C.3     1  UNL1        0.0911
     21 C          63.7858   85.5432   16.0230 C.3     1  UNL1        0.0213
     22 C          63.0039   87.7216   17.2034 C.3     1  UNL1        0.0001
     23 C          62.9306   86.2318   17.0450 C.3     1  UNL1        0.0018
@<TRIPOS>BOND
     1    22    23    1
     2    23    21    1
     3    21    20    1
     4    20     1    1
     5     1     2   am
     6     2     3    2
     7     2     4   am
     8     4     5   ar
     9     5    14    1
    10    14    15   am
    11    15    16    2
    12    15    18    1
    13    18    19    1
    14     5     6   ar
    15     6     7   ar
    16     7     8   ar
    17     8     9   ar
    18     9    10   ar
    19    10    11   ar
    20    11    12   ar
    21    12     4   ar
    22    12     7   ar
    23     1    13    1
    24    14    17    1
@<TRIPOS>MOLECULE
*****
 23 24 0 0 0
SMALL
GASTEIGER

@<TRIPOS>ATOM
      1 N          61.7491   86.8398    9.9620 N.am    1  UNL1       -0.2863
      2 C          62.3114   86.0501   11.1066 C.2     1  UNL1        0.3221
      3 O          62.1850   84.5554   11.1203 O.2     1  UNL1       -0.2491
      4 N          63.0002   86.7550   12.2374 N.ar    1  UNL1       -0.2334
      5 C          63.6086   86.1023   13.4432 C.ar    1  UNL1        0.2135
      6 N          64.1858   87.1802   14.3120 N.ar    1  UNL1       -0.2130
      7 C          63.9342   88.4991   13.6432 C.ar    1  UNL1        0.1004
      8 C          64.2777   89.9054   14.0361 C.ar    1  UNL1        0.0207
      9 C          63.8883   91.0488   13.1468 C.ar    1  UNL1        0.0016
     10 C          63.1555   90.7860   11.8646 C.ar    1  UNL1        0.0016
     11 C          62.8121   89.3797   11.4717 C.ar    1  UNL1        0.0193
     12 C          63.2014   88.2363   12.3610 C.ar    1  UNL1        0.0882
     13 H          61.8321   87.8207    9.9529 H       1  UNL1        0.1512
     14 N          63.6351   84.6301   13.7298 N.am    1  UNL1       -0.2206
     15 C          62.6770   84.0420   14.7228 C.2     1  UNL1        0.4076
     16 O          61.6923   84.9261   15.4293 O.2     1  UNL1       -0.2260
     17 H          64.2813   84.0499   13.2661 H       1  UNL1        0.1610
     18 O          62.7035   82.5699   15.0094 O.3     1  UNL1       -0.4303
     19 C          61.8272   81.6375   14.2265 C.3     1  UNL1        0.2574
     20 C          61.0604   86.1349    8.8311 C.3     1  UNL1        0.0911
     21 C          59.8758   86.7678    8.1633 C.3     1  UNL1        0.0213
     22 C          59.4575   89.0880    7.0714 C.3     1  UNL1        0.0001
     23 C          59.6386   88.2429    8.2974 C.3     1  UNL1        0.0018
@<TRIPOS>BOND
     1    22    23    1
     2    23    21    1
     3    21    20    1
     4    20     1    1
     5     1     2   am
     6     2     3    2
     7     2     4   am
     8     4     5   ar
     9     5    14    1
    10    14    15   am
    11    15    16    2
    12    15    18    1
    13    18    19    1
    14     5     6   ar
    15     6     7   ar
    16     7     8   ar
    17     8     9   ar
    18     9    10   ar
    19    10    11   ar
    20    11    12   ar
    21    12     4   ar
    22    12     7   ar
    23     1    13    1
    24    14    17    1
@<TRIPOS>MOLECULE
*****
 23 24 0 0 0
SMALL
GASTEIGER

@<TRIPOS>ATOM
      1 N          63.1161   85.6680   13.0330 N.am    1  UNL1       -0.2863
      2 C          62.5492   86.3599   11.8290 C.2     1  UNL1        0.3221
      3 O          61.8129   85.5702   10.7876 O.2     1  UNL1       -0.2491
      4 N          62.7185   87.8414   11.6662 N.ar    1  UNL1       -0.2334
      5 C          62.2092   88.6665   10.5217 C.ar    1  UNL1        0.2135
      6 N          62.6027   90.0929   10.7675 N.ar    1  UNL1       -0.2130
      7 C          63.3552   90.1494   12.0639 C.ar    1  UNL1        0.1004
      8 C          63.9844   91.2882   12.8104 C.ar    1  UNL1        0.0207
      9 C          64.6851   91.0354   14.1123 C.ar    1  UNL1        0.0016
     10 C          64.7567   89.6438   14.6677 C.ar    1  UNL1        0.0016
     11 C          64.1274   88.5051   13.9212 C.ar    1  UNL1        0.0193
     12 C          63.4267   88.7579   12.6193 C.ar    1  UNL1        0.0882
     13 H          63.5993   86.1863   13.7165 H       1  UNL1        0.1512
     14 N          61.4414   88.1550    9.3390 N.am    1  UNL1       -0.2206
     15 C          60.1750   88.8378    8.9146 C.2     1  UNL1        0.4076
     16 O          59.6765   90.0322    9.6730 O.2     1  UNL1       -0.2260
     17 H          61.7685   87.3711    8.8413 H       1  UNL1        0.1610
     18 O          59.4071   88.3263    7.7320 O.3     1  UNL1       -0.4303
     19 C          59.0445   86.8733    7.6446 C.3     1  UNL1        0.2574
     20 C          62.9468   84.1865   13.1958 C.3     1  UNL1        0.0911
     21 C          64.1406   83.2819   13.1150 C.3     1  UNL1        0.0213
     22 C          64.2600   83.1337   10.5239 C.3     1  UNL1        0.0001
     23 C          64.3951   82.4853   11.8698 C.3     1  UNL1        0.0018
@<TRIPOS>BOND
     1    22    23    1
     2    23    21    1
     3    21    20    1
     4    20     1    1
     5     1     2   am
     6     2     3    2
     7     2     4   am
     8     4     5   ar
     9     5    14    1
    10    14    15   am
    11    15    16    2
    12    15    18    1
    13    18    19    1
    14     5     6   ar
    15     6     7   ar
    16     7     8   ar
    17     8     9   ar
    18     9    10   ar
    19    10    11   ar
    20    11    12   ar
    21    12     4   ar
    22    12     7   ar
    23     1    13    1
    24    14    17    1
@<TRIPOS>MOLECULE
*****
 23 24 0 0 0
SMALL
GASTEIGER

@<TRIPOS>ATOM
      1 N          62.9688   90.0898   11.8077 N.am    1  UNL1       -0.2863
      2 C          63.0477   88.6375   12.1744 C.2     1  UNL1        0.3221
      3 O          63.8890   88.2025   13.3377 O.2     1  UNL1       -0.2491
      4 N          62.2855   87.6203   11.3781 N.ar    1  UNL1       -0.2334
      5 C          62.2673   86.1408   11.6246 C.ar    1  UNL1        0.2135
      6 N          61.3782   85.5101   10.5942 N.ar    1  UNL1       -0.2130
      7 C          60.8469   86.5998    9.7109 C.ar    1  UNL1        0.1004
      8 C          59.9250   86.5729    8.5280 C.ar    1  UNL1        0.0207
      9 C          59.5638   87.8503    7.8295 C.ar    1  UNL1        0.0016
     10 C          60.1245   89.1544    8.3139 C.ar    1  UNL1        0.0016
     11 C          61.0465   89.1813    9.4968 C.ar    1  UNL1        0.0193
     12 C          61.4077   87.9039   10.1953 C.ar    1  UNL1        0.0882
     13 H          62.4167   90.3753   11.0442 H       1  UNL1        0.1512
     14 N          63.0081   85.4188   12.7109 N.am    1  UNL1       -0.2206
     15 C          63.7821   84.1743   12.3915 C.2     1  UNL1        0.4076
     16 O          63.8153   83.6517   10.9858 O.2     1  UNL1       -0.2260
     17 H          62.9864   85.7618   13.6334 H       1  UNL1        0.1610
     18 O          64.5229   83.4523   13.4777 O.3     1  UNL1       -0.4303
     19 C          63.9476   83.3855   14.8614 C.3     1  UNL1        0.2574
     20 C          63.7310   91.1070   12.6040 C.3     1  UNL1        0.0911
     21 C          64.7834   91.9444   11.9398 C.3     1  UNL1        0.0213
     22 C          66.8775   91.9993   13.4766 C.3     1  UNL1        0.0001
     23 C          65.7639   92.7161   12.7724 C.3     1  UNL1        0.0018
@<TRIPOS>BOND
     1    22    23    1
     2    23    21    1
     3    21    20    1
     4    20     1    1
     5     1     2   am
     6     2     3    2
     7     2     4   am
     8     4     5   ar
     9     5    14    1
    10    14    15   am
    11    15    16    2
    12    15    18    1
    13    18    19    1
    14     5     6   ar
    15     6     7   ar
    16     7     8   ar
    17     8     9   ar
    18     9    10   ar
    19    10    11   ar
    20    11    12   ar
    21    12     4   ar
    22    12     7   ar
    23     1    13    1
    24    14    17    1
@<TRIPOS>MOLECULE
*****
 23 24 0 0 0
SMALL
GASTEIGER

@<TRIPOS>ATOM
      1 N          62.0409   88.0023   10.7037 N.am    1  UNL1       -0.2863
      2 C          62.8035   88.5468   11.8749 C.2     1  UNL1        0.3221
      3 O          62.9697   90.0287   12.0383 O.2     1  UNL1       -0.2491
      4 N          63.4000   87.6096   12.8828 N.ar    1  UNL1       -0.2334
      5 C          64.1844   88.0052   14.0986 C.ar    1  UNL1        0.2135
      6 N          64.5859   86.7523   14.8191 N.ar    1  UNL1       -0.2130
      7 C          64.0497   85.5824   14.0485 C.ar    1  UNL1        0.1004
      8 C          64.1341   84.1031   14.2819 C.ar    1  UNL1        0.0207
      9 C          63.4856   83.1537   13.3187 C.ar    1  UNL1        0.0016
     10 C          62.7526   83.6835   12.1220 C.ar    1  UNL1        0.0016
     11 C          62.6682   85.1628   11.8886 C.ar    1  UNL1        0.0193
     12 C          63.3167   86.1122   12.8518 C.ar    1  UNL1        0.0882
     13 H          61.9319   87.0298   10.5965 H       1  UNL1        0.1512
     14 N          64.5101   89.4075   14.5200 N.am    1  UNL1       -0.2206
     15 C          63.5777   90.1535   15.4277 C.2     1  UNL1        0.4076
     16 O          62.3195   89.4973   15.9141 O.2     1  UNL1       -0.2260
     17 H          65.3358   89.8382   14.2008 H       1  UNL1        0.1610
     18 O          63.9034   91.5558   15.8491 O.3     1  UNL1       -0.4303
     19 C          65.2986   92.0826   15.6876 C.3     1  UNL1        0.2574
     20 C          61.4445   88.9396    9.6958 C.3     1  UNL1        0.0911
     21 C          60.3319   88.4732    8.8043 C.3     1  UNL1        0.0213
     22 C          59.9512   86.1615    7.6813 C.3     1  UNL1        0.0001
     23 C          59.8527   87.0540    8.8829 C.3     1  UNL1        0.0018
@<TRIPOS>BOND
     1    22    23    1
     2    23    21    1
     3    21    20    1
     4    20     1    1
     5     1     2   am
     6     2     3    2
     7     2     4   am
     8     4     5   ar
     9     5    14    1
    10    14    15   am
    11    15    16    2
    12    15    18    1
    13    18    19    1
    14     5     6   ar
    15     6     7   ar
    16     7     8   ar
    17     8     9   ar
    18     9    10   ar
    19    10    11   ar
    20    11    12   ar
    21    12     4   ar
    22    12     7   ar
    23     1    13    1
    24    14    17    1
