@<TRIPOS>MOLECULE
*****
 26 28 0 0 0
SMALL
GASTEIGER

@<TRIPOS>ATOM
      1 C          61.9329   88.3430   11.2836 C.2     1  UNL1        0.0936
      2 C          61.8563   89.7834   10.8719 C.2     1  UNL1        0.1201
      3 O          60.8750   90.2121    9.8215 O.2     1  UNL1       -0.5092
      4 C          62.7611   90.7951   11.5105 C.3     1  UNL1        0.0691
      5 C          63.7424   90.3665   12.5608 C.3     1  UNL1        0.0389
      6 C          63.8190   88.9262   12.9726 C.3     1  UNL1        0.0746
      7 C          62.9142   87.9144   12.3339 C.2     1  UNL1        0.1819
      8 O          62.9908   86.4741   12.7457 O.2     1  UNL1       -0.2907
      9 H          60.3098   89.5801    9.4226 H       1  UNL1        0.2917
     10 C          64.6472   91.3781   13.1994 C.ar    1  UNL1       -0.0048
     11 C          64.8133   91.4007   14.6901 C.ar    1  UNL1        0.0542
     12 CL         64.0745   90.4116   15.5420 Cl      1  UNL1       -0.0826
     13 C          65.7181   92.4124   15.3286 C.ar    1  UNL1        0.0111
     14 C          66.4568   93.4015   14.4767 C.ar    1  UNL1        0.0014
     15 C          66.2908   93.3790   12.9861 C.ar    1  UNL1        0.0064
     16 C          65.3860   92.3673   12.3474 C.ar    1  UNL1        0.0314
     17 BR         65.2199   92.3447   10.8568 Br      1  UNL1       -0.0493
     18 S          61.0281   87.3313   10.6450 S.3     1  UNL1       -0.0807
     19 C          60.8875   86.4195    8.2163 C.ar    1  UNL1        0.0744
     20 C          61.4104   85.5238    7.1327 C.ar    1  UNL1        0.0108
     21 C          62.5970   84.6442    7.3942 C.ar    1  UNL1        0.0007
     22 C          63.2607   84.6604    8.7393 C.ar    1  UNL1        0.0006
     23 C          62.7377   85.5561    9.8229 C.ar    1  UNL1        0.0072
     24 C          61.5511   86.4356    9.5614 C.ar    1  UNL1        0.0392
     25 N          58.5143   88.1785    7.6932 N.1     1  UNL1       -0.1908
     26 C          59.7009   87.2990    7.9548 C.1     1  UNL1        0.1009
@<TRIPOS>BOND
     1    25    26    3
     2    26    19    1
     3    19    20   ar
     4    20    21   ar
     5    21    22   ar
     6    22    23   ar
     7    23    24   ar
     8    24    18    1
     9    18     1    1
    10     1     2    2
    11     2     3    1
    12     2     4    1
    13     4     5    1
    14     5    10    1
    15    10    11   ar
    16    11    12    1
    17    11    13   ar
    18    13    14   ar
    19    14    15   ar
    20    15    16   ar
    21    16    17    1
    22     5     6    1
    23     6     7    1
    24     7     8    2
    25    24    19   ar
    26     7     1    1
    27    16    10   ar
    28     3     9    1
@<TRIPOS>MOLECULE
*****
 26 28 0 0 0
SMALL
GASTEIGER

@<TRIPOS>ATOM
      1 C          61.8952   88.1390   11.2834 C.2     1  UNL1        0.0936
      2 C          62.8955   87.7124   12.3167 C.2     1  UNL1        0.1201
      3 O          63.0115   86.2657   12.6958 O.2     1  UNL1       -0.5092
      4 C          63.7797   88.7323   12.9707 C.3     1  UNL1        0.0691
      5 C          63.6637   90.1790   12.5916 C.3     1  UNL1        0.0389
      6 C          62.6635   90.6057   11.5584 C.3     1  UNL1        0.0746
      7 C          61.7792   89.5857   10.9043 C.2     1  UNL1        0.1819
      8 O          60.7790   90.0123    9.8711 O.2     1  UNL1       -0.2907
      9 H          62.4592   85.6286   12.2872 H       1  UNL1        0.2917
     10 C          64.5479   91.1990   13.2456 C.ar    1  UNL1       -0.0048
     11 C          65.3268   92.1662   12.4042 C.ar    1  UNL1        0.0542
     12 CL         65.2215   92.1134   10.9089 Cl      1  UNL1       -0.0826
     13 C          66.2110   93.1862   13.0583 C.ar    1  UNL1        0.0111
     14 C          66.3163   93.2390   14.5536 C.ar    1  UNL1        0.0014
     15 C          65.5375   92.2718   15.3950 C.ar    1  UNL1        0.0064
     16 C          64.6532   91.2518   14.7410 C.ar    1  UNL1        0.0314
     17 BR         63.8743   90.2846   15.5823 Br      1  UNL1       -0.0493
     18 S          61.0110   87.1190   10.6294 S.3     1  UNL1       -0.0807
     19 C          60.8383   86.2900    8.1732 C.ar    1  UNL1        0.0744
     20 C          61.3648   85.4547    7.0440 C.ar    1  UNL1        0.0108
     21 C          62.5906   84.6131    7.2419 C.ar    1  UNL1        0.0007
     22 C          63.2898   84.6067    8.5689 C.ar    1  UNL1        0.0006
     23 C          62.7633   85.4421    9.6980 C.ar    1  UNL1        0.0072
     24 C          61.5376   86.2837    9.5002 C.ar    1  UNL1        0.0392
     25 N          58.3868   87.9733    7.7774 N.1     1  UNL1       -0.1908
     26 C          59.6126   87.1317    7.9753 C.1     1  UNL1        0.1009
@<TRIPOS>BOND
     1    25    26    3
     2    26    19    1
     3    19    20   ar
     4    20    21   ar
     5    21    22   ar
     6    22    23   ar
     7    23    24   ar
     8    24    18    1
     9    18     1    1
    10     1     2    2
    11     2     3    1
    12     2     4    1
    13     4     5    1
    14     5    10    1
    15    10    11   ar
    16    11    12    1
    17    11    13   ar
    18    13    14   ar
    19    14    15   ar
    20    15    16   ar
    21    16    17    1
    22     5     6    1
    23     6     7    1
    24     7     8    2
    25    24    19   ar
    26     7     1    1
    27    16    10   ar
    28     3     9    1
@<TRIPOS>MOLECULE
*****
 26 28 0 0 0
SMALL
GASTEIGER

@<TRIPOS>ATOM
      1 C          62.5340   88.3091   11.8705 C.2     1  UNL1        0.0936
      2 C          63.4956   88.1602   13.0121 C.2     1  UNL1        0.1201
      3 O          63.6196   86.8443   13.7214 O.2     1  UNL1       -0.5092
      4 C          64.3331   89.3271   13.4444 C.3     1  UNL1        0.0691
      5 C          64.2090   90.6430   12.7350 C.3     1  UNL1        0.0389
      6 C          63.2475   90.7919   11.5935 C.3     1  UNL1        0.0746
      7 C          62.4100   89.6249   11.1611 C.2     1  UNL1        0.1819
      8 O          61.4485   89.7739   10.0196 O.2     1  UNL1       -0.2907
      9 H          63.0965   86.1154   13.4514 H       1  UNL1        0.2917
     10 C          65.0465   91.8099   13.1673 C.ar    1  UNL1       -0.0048
     11 C          65.3051   92.0482   14.6255 C.ar    1  UNL1        0.0542
     12 CL         64.7262   91.1196   15.6514 Cl      1  UNL1       -0.0826
     13 C          66.1426   93.2151   15.0578 C.ar    1  UNL1        0.0111
     14 C          66.7215   94.1437   14.0319 C.ar    1  UNL1        0.0014
     15 C          66.4630   93.9055   12.5737 C.ar    1  UNL1        0.0064
     16 C          65.6254   92.7385   12.1414 C.ar    1  UNL1        0.0314
     17 BR         65.3669   92.5002   10.6832 Br      1  UNL1       -0.0493
     18 S          61.6965   87.1422   11.4382 S.3     1  UNL1       -0.0807
     19 C          62.7202   84.7867   11.0458 C.ar    1  UNL1        0.0744
     20 C          63.2914   83.7569   10.1167 C.ar    1  UNL1        0.0108
     21 C          63.4100   84.0527    8.6510 C.ar    1  UNL1        0.0007
     22 C          62.9576   85.3782    8.1143 C.ar    1  UNL1        0.0006
     23 C          62.3864   86.4080    9.0434 C.ar    1  UNL1        0.0072
     24 C          62.2677   86.1123   10.5091 C.ar    1  UNL1        0.0392
     25 N          62.4829   84.1952   13.9773 N.1     1  UNL1       -0.1908
     26 C          62.6016   84.4910   12.5116 C.1     1  UNL1        0.1009
@<TRIPOS>BOND
     1    25    26    3
     2    26    19    1
     3    19    20   ar
     4    20    21   ar
     5    21    22   ar
     6    22    23   ar
     7    23    24   ar
     8    24    18    1
     9    18     1    1
    10     1     2    2
    11     2     3    1
    12     2     4    1
    13     4     5    1
    14     5    10    1
    15    10    11   ar
    16    11    12    1
    17    11    13   ar
    18    13    14   ar
    19    14    15   ar
    20    15    16   ar
    21    16    17    1
    22     5     6    1
    23     6     7    1
    24     7     8    2
    25    24    19   ar
    26     7     1    1
    27    16    10   ar
    28     3     9    1
@<TRIPOS>MOLECULE
*****
 26 28 0 0 0
SMALL
GASTEIGER

@<TRIPOS>ATOM
      1 C          62.5339   88.4973   12.3392 C.2     1  UNL1        0.0936
      2 C          61.7388   87.7866   11.2843 C.2     1  UNL1        0.1201
      3 O          60.8044   88.5596   10.4014 O.2     1  UNL1       -0.5092
      4 C          61.8782   86.3031   11.1122 C.3     1  UNL1        0.0691
      5 C          62.8126   85.5301   11.9951 C.3     1  UNL1        0.0389
      6 C          63.6077   86.2407   13.0500 C.3     1  UNL1        0.0746
      7 C          63.4683   87.7243   13.2221 C.2     1  UNL1        0.1819
      8 O          64.2634   88.4349   14.2770 O.2     1  UNL1       -0.2907
      9 H          60.7174   89.4863   10.5089 H       1  UNL1        0.2917
     10 C          62.9519   84.0466   11.8230 C.ar    1  UNL1       -0.0048
     11 C          63.3942   83.4826   10.5053 C.ar    1  UNL1        0.0542
     12 CL         63.6971   84.4023    9.3596 Cl      1  UNL1       -0.0826
     13 C          63.5336   81.9991   10.3332 C.ar    1  UNL1        0.0111
     14 C          63.2307   81.0794   11.4788 C.ar    1  UNL1        0.0014
     15 C          62.7884   81.6433   12.7965 C.ar    1  UNL1        0.0064
     16 C          62.6490   83.1270   12.9687 C.ar    1  UNL1        0.0314
     17 BR         62.2068   83.6908   14.2864 Br      1  UNL1       -0.0493
     18 S          62.3946   89.9808   12.5113 S.3     1  UNL1       -0.0807
     19 C          64.3324   91.5850   13.1606 C.ar    1  UNL1        0.0744
     20 C          65.4550   92.4953   12.7591 C.ar    1  UNL1        0.0108
     21 C          65.7623   92.7117   11.3070 C.ar    1  UNL1        0.0007
     22 C          64.9471   92.0179   10.2563 C.ar    1  UNL1        0.0006
     23 C          63.8246   91.1076   10.6577 C.ar    1  UNL1        0.0072
     24 C          63.5172   90.8912   12.1099 C.ar    1  UNL1        0.0392
     25 N          63.7178   91.1520   16.0648 N.1     1  UNL1       -0.1908
     26 C          64.0251   91.3685   14.6127 C.1     1  UNL1        0.1009
@<TRIPOS>BOND
     1    25    26    3
     2    26    19    1
     3    19    20   ar
     4    20    21   ar
     5    21    22   ar
     6    22    23   ar
     7    23    24   ar
     8    24    18    1
     9    18     1    1
    10     1     2    2
    11     2     3    1
    12     2     4    1
    13     4     5    1
    14     5    10    1
    15    10    11   ar
    16    11    12    1
    17    11    13   ar
    18    13    14   ar
    19    14    15   ar
    20    15    16   ar
    21    16    17    1
    22     5     6    1
    23     6     7    1
    24     7     8    2
    25    24    19   ar
    26     7     1    1
    27    16    10   ar
    28     3     9    1
@<TRIPOS>MOLECULE
*****
 26 28 0 0 0
SMALL
GASTEIGER

@<TRIPOS>ATOM
      1 C          61.6143   88.5592   11.6828 C.2     1  UNL1        0.0936
      2 C          62.8613   88.1137   12.3875 C.2     1  UNL1        0.1201
      3 O          63.0866   86.6568   12.6645 O.2     1  UNL1       -0.5092
      4 C          63.8831   89.1252   12.8151 C.3     1  UNL1        0.0691
      5 C          63.6579   90.5821   12.5382 C.3     1  UNL1        0.0389
      6 C          62.4109   91.0276   11.8336 C.3     1  UNL1        0.0746
      7 C          61.3890   90.0161   11.4059 C.2     1  UNL1        0.1819
      8 O          60.1420   90.4615   10.7013 O.2     1  UNL1       -0.2907
      9 H          62.4483   86.0250   12.3973 H       1  UNL1        0.2917
     10 C          64.6797   91.5935   12.9658 C.ar    1  UNL1       -0.0048
     11 C          65.3644   92.4476   11.9403 C.ar    1  UNL1        0.0542
     12 CL         65.0274   92.2903   10.4871 Cl      1  UNL1       -0.0826
     13 C          66.3862   93.4591   12.3679 C.ar    1  UNL1        0.0111
     14 C          66.7233   93.6165   13.8210 C.ar    1  UNL1        0.0014
     15 C          66.0386   92.7624   14.8465 C.ar    1  UNL1        0.0064
     16 C          65.0167   91.7509   14.4189 C.ar    1  UNL1        0.0314
     17 BR         64.3320   90.8969   15.4444 Br      1  UNL1       -0.0493
     18 S          60.5925   87.5477   11.2552 S.3     1  UNL1       -0.0807
     19 C          61.1648   86.1019    9.1738 C.ar    1  UNL1        0.0744
     20 C          60.9812   85.7907    7.7181 C.ar    1  UNL1        0.0108
     21 C          60.0416   86.6140    6.8878 C.ar    1  UNL1        0.0007
     22 C          59.2857   87.7485    7.5133 C.ar    1  UNL1        0.0006
     23 C          59.4693   88.0598    8.9691 C.ar    1  UNL1        0.0072
     24 C          60.4089   87.2365    9.7993 C.ar    1  UNL1        0.0392
     25 N          63.0439   84.4553   10.8344 N.1     1  UNL1       -0.1908
     26 C          62.1044   85.2786   10.0041 C.1     1  UNL1        0.1009
@<TRIPOS>BOND
     1    25    26    3
     2    26    19    1
     3    19    20   ar
     4    20    21   ar
     5    21    22   ar
     6    22    23   ar
     7    23    24   ar
     8    24    18    1
     9    18     1    1
    10     1     2    2
    11     2     3    1
    12     2     4    1
    13     4     5    1
    14     5    10    1
    15    10    11   ar
    16    11    12    1
    17    11    13   ar
    18    13    14   ar
    19    14    15   ar
    20    15    16   ar
    21    16    17    1
    22     5     6    1
    23     6     7    1
    24     7     8    2
    25    24    19   ar
    26     7     1    1
    27    16    10   ar
    28     3     9    1
@<TRIPOS>MOLECULE
*****
 26 28 0 0 0
SMALL
GASTEIGER

@<TRIPOS>ATOM
      1 C          61.7012   88.5499   11.7650 C.2     1  UNL1        0.0936
      2 C          61.4766   90.0042   11.4737 C.2     1  UNL1        0.1201
      3 O          60.2422   90.4405   10.7417 O.2     1  UNL1       -0.5092
      4 C          62.4864   91.0220   11.9143 C.3     1  UNL1        0.0691
      5 C          63.7209   90.5857   12.6463 C.3     1  UNL1        0.0389
      6 C          63.9455   89.1316   12.9376 C.3     1  UNL1        0.0746
      7 C          62.9356   88.1136   12.4970 C.2     1  UNL1        0.1819
      8 O          63.1603   86.6595   12.7884 O.2     1  UNL1       -0.2907
      9 H          59.6114   89.8046   10.4665 H       1  UNL1        0.2917
     10 C          64.7307   91.6036   13.0869 C.ar    1  UNL1       -0.0048
     11 C          65.0682   91.7442   14.5417 C.ar    1  UNL1        0.0542
     12 CL         64.3959   90.8669   15.5558 Cl      1  UNL1       -0.0826
     13 C          66.0781   92.7621   14.9823 C.ar    1  UNL1        0.0111
     14 C          66.7504   93.6393   13.9682 C.ar    1  UNL1        0.0014
     15 C          66.4128   93.4988   12.5135 C.ar    1  UNL1        0.0064
     16 C          65.4030   92.4809   12.0728 C.ar    1  UNL1        0.0314
     17 BR         65.0655   92.3403   10.6181 Br      1  UNL1       -0.0493
     18 S          60.6914   87.5321   11.3244 S.3     1  UNL1       -0.0807
     19 C          61.1945   86.1280    9.1971 C.ar    1  UNL1        0.0744
     20 C          60.9848   85.8635    7.7356 C.ar    1  UNL1        0.0108
     21 C          60.0622   86.7386    6.9399 C.ar    1  UNL1        0.0007
     22 C          59.3494   87.8781    7.6056 C.ar    1  UNL1        0.0006
     23 C          59.5591   88.1426    9.0671 C.ar    1  UNL1        0.0072
     24 C          60.4817   87.2675    9.8628 C.ar    1  UNL1        0.0392
     25 N          63.0397   84.3780   10.7885 N.1     1  UNL1       -0.1908
     26 C          62.1171   85.2530    9.9928 C.1     1  UNL1        0.1009
@<TRIPOS>BOND
     1    25    26    3
     2    26    19    1
     3    19    20   ar
     4    20    21   ar
     5    21    22   ar
     6    22    23   ar
     7    23    24   ar
     8    24    18    1
     9    18     1    1
    10     1     2    2
    11     2     3    1
    12     2     4    1
    13     4     5    1
    14     5    10    1
    15    10    11   ar
    16    11    12    1
    17    11    13   ar
    18    13    14   ar
    19    14    15   ar
    20    15    16   ar
    21    16    17    1
    22     5     6    1
    23     6     7    1
    24     7     8    2
    25    24    19   ar
    26     7     1    1
    27    16    10   ar
    28     3     9    1
@<TRIPOS>MOLECULE
*****
 26 28 0 0 0
SMALL
GASTEIGER

@<TRIPOS>ATOM
      1 C          62.9650   90.8082   11.9526 C.2     1  UNL1        0.0936
      2 C          63.9803   91.7165   11.3247 C.2     1  UNL1        0.1201
      3 O          63.7802   92.2093    9.9222 O.2     1  UNL1       -0.5092
      4 C          65.1958   92.1320   12.0994 C.3     1  UNL1        0.0691
      5 C          65.3959   91.6392   13.5019 C.3     1  UNL1        0.0389
      6 C          64.3807   90.7310   14.1298 C.3     1  UNL1        0.0746
      7 C          63.1652   90.3155   13.3552 C.2     1  UNL1        0.1819
      8 O          62.1499   89.4072   13.9831 O.2     1  UNL1       -0.2907
      9 H          63.0209   91.9497    9.4383 H       1  UNL1        0.2917
     10 C          66.6113   92.0547   14.2765 C.ar    1  UNL1       -0.0048
     11 C          66.4802   92.4700   15.7120 C.ar    1  UNL1        0.0542
     12 CL         65.1335   92.4697   16.3727 Cl      1  UNL1       -0.0826
     13 C          67.6956   92.8855   16.4866 C.ar    1  UNL1        0.0111
     14 C          69.0422   92.8858   15.8259 C.ar    1  UNL1        0.0014
     15 C          69.1734   92.4706   14.3905 C.ar    1  UNL1        0.0064
     16 C          67.9580   92.0550   13.6158 C.ar    1  UNL1        0.0314
     17 BR         68.0892   91.6398   12.1804 Br      1  UNL1       -0.0493
     18 S          61.7496   90.3927   11.1780 S.3     1  UNL1       -0.0807
     19 C          60.4673   88.1383   11.0252 C.ar    1  UNL1        0.0744
     20 C          60.3579   86.7394   10.4949 C.ar    1  UNL1        0.0108
     21 C          61.4214   86.1961    9.5872 C.ar    1  UNL1        0.0007
     22 C          62.5942   87.0516    9.2098 C.ar    1  UNL1        0.0006
     23 C          62.7036   88.4505    9.7401 C.ar    1  UNL1        0.0072
     24 C          61.6402   88.9938   10.6478 C.ar    1  UNL1        0.0392
     25 N          58.3405   89.2249   12.8406 N.1     1  UNL1       -0.1908
     26 C          59.4039   88.6816   11.9329 C.1     1  UNL1        0.1009
@<TRIPOS>BOND
     1    25    26    3
     2    26    19    1
     3    19    20   ar
     4    20    21   ar
     5    21    22   ar
     6    22    23   ar
     7    23    24   ar
     8    24    18    1
     9    18     1    1
    10     1     2    2
    11     2     3    1
    12     2     4    1
    13     4     5    1
    14     5    10    1
    15    10    11   ar
    16    11    12    1
    17    11    13   ar
    18    13    14   ar
    19    14    15   ar
    20    15    16   ar
    21    16    17    1
    22     5     6    1
    23     6     7    1
    24     7     8    2
    25    24    19   ar
    26     7     1    1
    27    16    10   ar
    28     3     9    1
@<TRIPOS>MOLECULE
*****
 26 28 0 0 0
SMALL
GASTEIGER

@<TRIPOS>ATOM
      1 C          63.2914   84.4025   11.2335 C.2     1  UNL1        0.0936
      2 C          63.4285   84.5157    9.7440 C.2     1  UNL1        0.1201
      3 O          64.3670   83.6076    9.0061 O.2     1  UNL1       -0.5092
      4 C          62.6270   85.5370    8.9926 C.3     1  UNL1        0.0691
      5 C          61.6885   86.4451    9.7305 C.3     1  UNL1        0.0389
      6 C          61.5515   86.3319   11.2199 C.3     1  UNL1        0.0746
      7 C          62.3529   85.3106   11.9715 C.2     1  UNL1        0.1819
      8 O          62.2158   85.1975   13.4609 O.2     1  UNL1       -0.2907
      9 H          64.8676   82.9697    9.4755 H       1  UNL1        0.2917
     10 C          60.8871   87.4663    8.9791 C.ar    1  UNL1       -0.0048
     11 C          59.9660   87.0341    7.8769 C.ar    1  UNL1        0.0542
     12 CL         59.8463   85.5806    7.5262 Cl      1  UNL1       -0.0826
     13 C          59.1645   88.0553    7.1254 C.ar    1  UNL1        0.0111
     14 C          59.2842   89.5089    7.4761 C.ar    1  UNL1        0.0014
     15 C          60.2053   89.9411    8.5782 C.ar    1  UNL1        0.0064
     16 C          61.0068   88.9199    9.3297 C.ar    1  UNL1        0.0314
     17 BR         61.9279   89.3521   10.4319 Br      1  UNL1       -0.0493
     18 S          64.0928   83.3813   11.9849 S.3     1  UNL1       -0.0807
     19 C          63.2027   81.6295   13.6847 C.ar    1  UNL1        0.0744
     20 C          62.6166   80.2789   13.9713 C.ar    1  UNL1        0.0108
     21 C          62.3343   79.3294   12.8450 C.ar    1  UNL1        0.0007
     22 C          62.6382   79.7305   11.4319 C.ar    1  UNL1        0.0006
     23 C          63.2244   81.0811   11.1453 C.ar    1  UNL1        0.0072
     24 C          63.5066   82.0306   12.2717 C.ar    1  UNL1        0.0392
     25 N          63.7672   83.5286   15.9375 N.1     1  UNL1       -0.1908
     26 C          63.4850   82.5790   14.8111 C.1     1  UNL1        0.1009
@<TRIPOS>BOND
     1    25    26    3
     2    26    19    1
     3    19    20   ar
     4    20    21   ar
     5    21    22   ar
     6    22    23   ar
     7    23    24   ar
     8    24    18    1
     9    18     1    1
    10     1     2    2
    11     2     3    1
    12     2     4    1
    13     4     5    1
    14     5    10    1
    15    10    11   ar
    16    11    12    1
    17    11    13   ar
    18    13    14   ar
    19    14    15   ar
    20    15    16   ar
    21    16    17    1
    22     5     6    1
    23     6     7    1
    24     7     8    2
    25    24    19   ar
    26     7     1    1
    27    16    10   ar
    28     3     9    1
@<TRIPOS>MOLECULE
*****
 26 28 0 0 0
SMALL
GASTEIGER

@<TRIPOS>ATOM
      1 C          63.2447   90.0339   12.3904 C.2     1  UNL1        0.0936
      2 C          63.7106   89.5507   13.7319 C.2     1  UNL1        0.1201
      3 O          63.0003   88.4158   14.4084 O.2     1  UNL1       -0.5092
      4 C          64.8867   90.2023   14.3968 C.3     1  UNL1        0.0691
      5 C          65.5969   91.3372   13.7204 C.3     1  UNL1        0.0389
      6 C          65.1311   91.8204   12.3789 C.3     1  UNL1        0.0746
      7 C          63.9549   91.1688   11.7140 C.2     1  UNL1        0.1819
      8 O          63.4891   91.6520   10.3726 O.2     1  UNL1       -0.2907
      9 H          62.2657   88.0088   13.9931 H       1  UNL1        0.2917
     10 C          66.7730   91.9888   14.3853 C.ar    1  UNL1       -0.0048
     11 C          68.1023   92.0246   13.6910 C.ar    1  UNL1        0.0542
     12 CL         68.2553   91.4087   12.3319 Cl      1  UNL1       -0.0826
     13 C          69.2784   92.6762   14.3560 C.ar    1  UNL1        0.0111
     14 C          69.1253   93.2921   15.7151 C.ar    1  UNL1        0.0014
     15 C          67.7961   93.2563   16.4093 C.ar    1  UNL1        0.0064
     16 C          66.6199   92.6047   15.7444 C.ar    1  UNL1        0.0314
     17 BR         65.2908   92.5689   16.4386 Br      1  UNL1       -0.0493
     18 S          62.0686   89.3823   11.7255 S.3     1  UNL1       -0.0807
     19 C          61.5324   87.5469    9.9666 C.ar    1  UNL1        0.0744
     20 C          61.6257   86.1225    9.5057 C.ar    1  UNL1        0.0108
     21 C          62.3483   85.1091   10.3429 C.ar    1  UNL1        0.0007
     22 C          62.9777   85.5201   11.6409 C.ar    1  UNL1        0.0006
     23 C          62.8845   86.9445   12.1018 C.ar    1  UNL1        0.0072
     24 C          62.1618   87.9579   11.2646 C.ar    1  UNL1        0.0392
     25 N          60.0871   89.5737    8.2923 N.1     1  UNL1       -0.1908
     26 C          60.8098   88.5603    9.1294 C.1     1  UNL1        0.1009
@<TRIPOS>BOND
     1    25    26    3
     2    26    19    1
     3    19    20   ar
     4    20    21   ar
     5    21    22   ar
     6    22    23   ar
     7    23    24   ar
     8    24    18    1
     9    18     1    1
    10     1     2    2
    11     2     3    1
    12     2     4    1
    13     4     5    1
    14     5    10    1
    15    10    11   ar
    16    11    12    1
    17    11    13   ar
    18    13    14   ar
    19    14    15   ar
    20    15    16   ar
    21    16    17    1
    22     5     6    1
    23     6     7    1
    24     7     8    2
    25    24    19   ar
    26     7     1    1
    27    16    10   ar
    28     3     9    1
