@<TRIPOS>MOLECULE
*****
 69 77 0 0 0
SMALL
GASTEIGER

@<TRIPOS>ATOM
      1 N          63.8432   96.6660   -4.8965 N.3     1  UNL1       -0.1862
      2 C          63.1201   96.6350   -6.2103 C.3     1  UNL1        0.1775
      3 C          61.6276   96.4893   -6.2417 C.2     1  UNL1        0.2452
      4 O          60.9045   96.4583   -7.5557 O.2     1  UNL1       -0.2732
      5 N          60.8580   96.3748   -4.9593 N.am    1  UNL1       -0.2541
      6 C          59.3654   96.2291   -4.9908 C.3     1  UNL1        0.1577
      7 C          58.5959   96.1146   -3.7084 C.2     1  UNL1        0.2445
      8 O          57.1033   95.9690   -3.7398 O.2     1  UNL1       -0.2731
      9 N          59.3189   96.1456   -2.3944 N.am    1  UNL1       -0.2705
     10 C          60.8115   96.2913   -2.3630 C.3     1  UNL1        0.1359
     11 C          61.5810   96.4058   -3.6455 C.3     1  UNL1        0.1908
     12 N          63.0736   96.5515   -3.6141 N.am    1  UNL1       -0.1863
     13 C          63.7966   96.5825   -2.3001 C.2     1  UNL1        0.3191
     14 O          63.0271   96.4680   -1.0177 O.2     1  UNL1       -0.2512
     15 N          65.2892   96.7281   -2.2687 N.am    1  UNL1       -0.2836
     16 H          65.7943   96.8033   -3.1104 H       1  UNL1        0.1513
     17 C          65.3357   96.8116   -4.8650 C.3     1  UNL1        0.1188
     18 C          67.6378   96.6463   -6.0579 C.2     1  UNL1       -0.0034
     19 C          66.1428   96.5310   -6.0978 C.2     1  UNL1       -0.0071
     20 C          58.6424   96.1981   -6.3046 C.3     1  UNL1        0.0556
     21 C          57.6845   95.0842   -6.6074 C.ar    1  UNL1       -0.0198
     22 C          58.1912   93.6811   -6.7639 C.ar    1  UNL1       -0.0011
     23 C          57.2333   92.5672   -7.0667 C.ar    1  UNL1        0.0363
     24 C          55.7687   92.8564   -7.2130 C.ar    1  UNL1        0.1337
     25 O          54.8109   91.7425   -7.5158 O.3     1  UNL1       -0.5055
     26 C          55.2620   94.2595   -7.0565 C.ar    1  UNL1        0.0363
     27 C          56.2199   95.3734   -6.7537 C.ar    1  UNL1       -0.0011
     28 H          55.1274   90.8660   -7.6136 H       1  UNL1        0.2922
     29 C          58.5493   96.0311   -1.1120 C.3     1  UNL1        0.1217
     30 C          58.4401   94.7053   -0.4187 C.ar    1  UNL1        0.0135
     31 C          57.6971   93.5771   -1.0707 C.ar    1  UNL1       -0.0012
     32 C          57.5878   92.2514   -0.3775 C.ar    1  UNL1       -0.0002
     33 C          58.2215   92.0540    0.9677 C.ar    1  UNL1        0.0015
     34 C          58.9645   93.1822    1.6196 C.ar    1  UNL1        0.0170
     35 C          59.6866   93.2837    2.9304 C.ar    1  UNL1        0.0186
     36 C          60.2422   94.6721    3.0472 C.ar    1  UNL1        0.0759
     37 N          59.8635   95.4287    1.8088 N.ar    1  UNL1       -0.3242
     38 C          60.2130   96.8555    1.5057 C.3     1  UNL1        0.1305
     39 C          59.0738   94.5079    0.9264 C.ar    1  UNL1        0.0575
     40 C          59.8283   92.1889    3.9460 C.ar    1  UNL1        0.0015
     41 C          61.1904   91.6816    4.3169 C.ar    1  UNL1        0.0002
     42 C          61.3320   90.5868    5.3324 C.ar    1  UNL1        0.0045
     43 C          60.1116   89.9994    5.9772 C.ar    1  UNL1        0.0537
     44 C          58.7496   90.5067    5.6063 C.ar    1  UNL1        0.0045
     45 C          58.6080   91.6014    4.5907 C.ar    1  UNL1        0.0002
     46 C          60.2533   88.9046    6.9927 C.2     1  UNL1        0.2495
     47 O          59.1064   87.9752    7.2586 O.2     1  UNL1       -0.2698
     48 N          61.5420   88.7392    7.7426 N.am    1  UNL1       -0.2804
     49 H          62.2948   89.3493    7.5681 H       1  UNL1        0.1552
     50 C          61.6836   87.6445    8.7581 C.ar    1  UNL1        0.0506
     51 C          60.8845   87.6905   10.0267 C.ar    1  UNL1        0.0159
     52 C          61.0260   86.5957   11.0423 C.ar    1  UNL1        0.0158
     53 C          61.9666   85.4550   10.7893 C.ar    1  UNL1        0.0480
     54 C          62.7657   85.4091    9.5207 C.ar    1  UNL1        0.0158
     55 C          62.6242   86.5038    8.5051 C.ar    1  UNL1        0.0159
     56 N          62.1082   84.3603   11.8049 N.pl3   1  UNL1       -0.3046
     57 C          62.1771   84.6962   13.2652 C.3     1  UNL1        0.1081
     58 C          62.3187   83.6015   14.2808 C.3     1  UNL1        0.0938
     59 N          62.3915   82.1707   13.8362 N.3     1  UNL1       -0.2686
     60 C          62.5331   81.0760   14.8518 C.3     1  UNL1        0.0897
     61 C          62.3227   81.8347   12.3759 C.3     1  UNL1        0.0938
     62 C          62.1810   82.9295   11.3603 C.3     1  UNL1        0.1081
     63 C          66.0122   96.7592   -0.9549 C.3     1  UNL1        0.1177
     64 C          65.5162   95.9321    0.1940 C.ar    1  UNL1       -0.0025
     65 C          65.1511   96.5919    1.4906 C.ar    1  UNL1       -0.0026
     66 C          64.6551   95.7647    2.6394 C.ar    1  UNL1       -0.0003
     67 C          64.5241   94.2778    2.4916 C.ar    1  UNL1       -0.0000
     68 C          64.8891   93.6180    1.1949 C.ar    1  UNL1       -0.0003
     69 C          65.3852   94.4451    0.0461 C.ar    1  UNL1       -0.0026
@<TRIPOS>BOND
     1    18    19    2
     2    19    17    1
     3    17     1    1
     4     1     2    1
     5     2     3    1
     6     3     4    2
     7     3     5   am
     8     5     6    1
     9     6    20    1
    10    20    21    1
    11    21    22   ar
    12    22    23   ar
    13    23    24   ar
    14    24    25    1
    15    24    26   ar
    16    26    27   ar
    17     6     7    1
    18     7     8    2
    19     7     9   am
    20     9    29    1
    21    29    30    1
    22    30    31   ar
    23    31    32   ar
    24    32    33   ar
    25    33    34   ar
    26    34    35   ar
    27    35    40    1
    28    40    41   ar
    29    41    42   ar
    30    42    43   ar
    31    43    46    1
    32    46    47    2
    33    46    48   am
    34    48    50    1
    35    50    51   ar
    36    51    52   ar
    37    52    53   ar
    38    53    56    1
    39    56    57    1
    40    57    58    1
    41    58    59    1
    42    59    60    1
    43    59    61    1
    44    61    62    1
    45    53    54   ar
    46    54    55   ar
    47    43    44   ar
    48    44    45   ar
    49    35    36   ar
    50    36    37   ar
    51    37    38    1
    52    37    39   ar
    53     9    10    1
    54    11    10    1
    55    11    12    1
    56    12    13   am
    57    13    14    2
    58    13    15   am
    59    15    63    1
    60    63    64    1
    61    64    65   ar
    62    65    66   ar
    63    66    67   ar
    64    67    68   ar
    65    68    69   ar
    66    12     1    1
    67    69    64   ar
    68    11     5    1
    69    27    21   ar
    70    39    30   ar
    71    39    34   ar
    72    45    40   ar
    73    55    50   ar
    74    62    56    1
    75    25    28    1
    76    48    49    1
    77    15    16    1
