@<TRIPOS>MOLECULE
*****
 39 41 0 0 0
SMALL
GASTEIGER

@<TRIPOS>ATOM
      1 C          62.5094   89.6123   11.4870 C.3     1  UNL1        0.1281
      2 C          62.8733   89.1526   12.8677 C.2     1  UNL1        0.2325
      3 O          62.4610   89.9627   14.0609 O.2     1  UNL1       -0.2742
      4 N          63.6496   87.8829   13.0552 N.am    1  UNL1       -0.3033
      5 H          63.9202   87.3512   12.2720 H       1  UNL1        0.1495
      6 C          64.0135   87.4232   14.4358 C.3     1  UNL1        0.0941
      7 C          64.6669   86.0876   14.6338 C.3     1  UNL1        0.0492
      8 C          63.9285   84.8313   14.2782 C.ar    1  UNL1       -0.0013
      9 C          63.7055   84.4744   12.8385 C.ar    1  UNL1       -0.0011
     10 C          62.9671   83.2181   12.4829 C.ar    1  UNL1        0.0204
     11 C          62.4515   82.3187   13.5670 C.ar    1  UNL1        0.0989
     12 N          62.6745   82.6757   15.0068 N.ar    1  UNL1       -0.2426
     13 C          63.4129   83.9320   15.3624 C.ar    1  UNL1        0.0946
     14 S          63.4512   90.4889   10.7158 S.3     1  UNL1       -0.1298
     15 C          63.6611   91.9143   11.1335 C.3     1  UNL1        0.0780
     16 C          64.8824   92.2942   11.9171 C.3     1  UNL1        0.0899
     17 C          66.7145   93.6790   10.7021 C.2     1  UNL1        0.4014
     18 O          67.1890   92.4388   10.0043 O.2     1  UNL1       -0.2264
     19 N          65.5612   93.6066   11.6585 N.am    1  UNL1       -0.2711
     20 H          65.2497   94.4205   12.1165 H       1  UNL1        0.1527
     21 O          67.3932   94.9914   10.4436 O.3     1  UNL1       -0.4419
     22 C          67.4915   95.0935    8.3270 C.3     1  UNL1        0.0437
     23 C          66.8516   95.9232    9.4004 C.3     1  UNL1        0.1378
     24 C          66.2116   96.7529   10.4737 C.3     1  UNL1        0.0437
     25 C          66.3099   96.8550    8.3572 C.3     1  UNL1        0.0437
     26 C          65.4251   91.3616   12.9591 C.3     1  UNL1        0.0469
     27 C          66.4272   91.8564   13.9595 C.ar    1  UNL1       -0.0205
     28 C          65.9653   92.3872   15.2843 C.ar    1  UNL1       -0.0042
     29 C          66.9674   92.8820   16.2847 C.ar    1  UNL1       -0.0003
     30 C          68.4315   92.8459   15.9605 C.ar    1  UNL1       -0.0000
     31 C          68.8935   92.3151   14.6358 C.ar    1  UNL1       -0.0003
     32 C          67.8913   91.8203   13.6353 C.ar    1  UNL1       -0.0042
     33 C          61.2038   89.1955   10.8775 C.3     1  UNL1        0.0463
     34 C          61.1674   88.0862    9.8684 C.ar    1  UNL1       -0.0208
     35 C          62.2942   87.0985    9.7985 C.ar    1  UNL1       -0.0042
     36 C          62.2577   85.9893    8.7895 C.ar    1  UNL1       -0.0003
     37 C          61.0945   85.8677    7.8502 C.ar    1  UNL1       -0.0000
     38 C          59.9678   86.8554    7.9200 C.ar    1  UNL1       -0.0003
     39 C          60.0042   87.9646    8.9291 C.ar    1  UNL1       -0.0042
@<TRIPOS>BOND
     1    22    23    1
     2    23    24    1
     3    23    25    1
     4    23    21    1
     5    21    17    1
     6    17    18    2
     7    17    19   am
     8    19    16    1
     9    16    15    1
    10    15    14    1
    11    14     1    1
    12     1    33    1
    13    33    34    1
    14    34    35   ar
    15    35    36   ar
    16    36    37   ar
    17    37    38   ar
    18    38    39   ar
    19     1     2    1
    20     2     3    2
    21     2     4   am
    22     4     6    1
    23     6     7    1
    24     7     8    1
    25     8     9   ar
    26     9    10   ar
    27    10    11   ar
    28    11    12   ar
    29    12    13   ar
    30    16    26    1
    31    26    27    1
    32    27    28   ar
    33    28    29   ar
    34    29    30   ar
    35    30    31   ar
    36    31    32   ar
    37    39    34   ar
    38    13     8   ar
    39    32    27   ar
    40    19    20    1
    41     4     5    1
@<TRIPOS>MOLECULE
*****
 39 41 0 0 0
SMALL
GASTEIGER

@<TRIPOS>ATOM
      1 C          64.0922   89.8320   14.5913 C.3     1  UNL1        0.1281
      2 C          63.9139   88.4828   15.2221 C.2     1  UNL1        0.2325
      3 O          63.2593   88.3641   16.5665 O.2     1  UNL1       -0.2742
      4 N          64.3901   87.2523   14.5086 N.am    1  UNL1       -0.3033
      5 H          64.8198   87.3302   13.6262 H       1  UNL1        0.1495
      6 C          64.2118   85.9032   15.1394 C.3     1  UNL1        0.0941
      7 C          63.2470   84.9196   14.5464 C.3     1  UNL1        0.0492
      8 C          63.4943   84.3586   13.1774 C.ar    1  UNL1       -0.0013
      9 C          62.7802   84.9346   11.9907 C.ar    1  UNL1       -0.0011
     10 C          63.0275   84.3737   10.6216 C.ar    1  UNL1        0.0204
     11 C          63.9889   83.2368   10.4393 C.ar    1  UNL1        0.0989
     12 N          64.7030   82.6609   11.6261 N.ar    1  UNL1       -0.2426
     13 C          64.4557   83.2218   12.9951 C.ar    1  UNL1        0.0946
     14 S          63.8927   90.0016   13.1143 S.3     1  UNL1       -0.1298
     15 C          63.7598   91.3761   12.5285 C.3     1  UNL1        0.0780
     16 C          64.0045   91.5943   11.0647 C.3     1  UNL1        0.0899
     17 C          66.0809   93.1209   11.3936 C.2     1  UNL1        0.4014
     18 O          65.4887   93.6522   12.6653 O.2     1  UNL1       -0.2264
     19 N          65.3387   92.0919   10.5933 N.am    1  UNL1       -0.2711
     20 H          65.7273   91.7432    9.7587 H       1  UNL1        0.1527
     21 O          67.4151   93.6185   10.9223 O.3     1  UNL1       -0.4419
     22 C          66.7634   95.4881   10.1607 C.3     1  UNL1        0.0437
     23 C          67.5291   94.3247    9.6038 C.3     1  UNL1        0.1378
     24 C          68.2948   93.1613    9.0469 C.3     1  UNL1        0.0437
     25 C          67.6431   95.0309    8.2854 C.3     1  UNL1        0.0437
     26 C          62.9149   91.3149   10.0724 C.3     1  UNL1        0.0469
     27 C          61.9683   90.1738   10.2995 C.ar    1  UNL1       -0.0205
     28 C          60.6552   90.4134   10.9841 C.ar    1  UNL1       -0.0042
     29 C          59.7086   89.2722   11.2112 C.ar    1  UNL1       -0.0003
     30 C          60.0749   87.8914   10.7538 C.ar    1  UNL1       -0.0000
     31 C          61.3879   87.6518   10.0692 C.ar    1  UNL1       -0.0003
     32 C          62.3346   88.7930    9.8421 C.ar    1  UNL1       -0.0042
     33 C          64.4701   91.0115   15.4374 C.3     1  UNL1        0.0463
     34 C          65.8430   91.6055   15.3258 C.ar    1  UNL1       -0.0208
     35 C          66.2514   92.7264   16.2350 C.ar    1  UNL1       -0.0042
     36 C          67.6242   93.3204   16.1234 C.ar    1  UNL1       -0.0003
     37 C          68.5887   92.7933   15.1026 C.ar    1  UNL1       -0.0000
     38 C          68.1804   91.6724   14.1935 C.ar    1  UNL1       -0.0003
     39 C          66.8075   91.0784   14.3051 C.ar    1  UNL1       -0.0042
@<TRIPOS>BOND
     1    22    23    1
     2    23    24    1
     3    23    25    1
     4    23    21    1
     5    21    17    1
     6    17    18    2
     7    17    19   am
     8    19    16    1
     9    16    15    1
    10    15    14    1
    11    14     1    1
    12     1    33    1
    13    33    34    1
    14    34    35   ar
    15    35    36   ar
    16    36    37   ar
    17    37    38   ar
    18    38    39   ar
    19     1     2    1
    20     2     3    2
    21     2     4   am
    22     4     6    1
    23     6     7    1
    24     7     8    1
    25     8     9   ar
    26     9    10   ar
    27    10    11   ar
    28    11    12   ar
    29    12    13   ar
    30    16    26    1
    31    26    27    1
    32    27    28   ar
    33    28    29   ar
    34    29    30   ar
    35    30    31   ar
    36    31    32   ar
    37    39    34   ar
    38    13     8   ar
    39    32    27   ar
    40    19    20    1
    41     4     5    1
@<TRIPOS>MOLECULE
*****
 39 41 0 0 0
SMALL
GASTEIGER

@<TRIPOS>ATOM
      1 C          61.1515   87.2925   10.9035 C.3     1  UNL1        0.1281
      2 C          61.4193   88.7249   11.2597 C.2     1  UNL1        0.2325
      3 O          60.7721   89.3304   12.4699 O.2     1  UNL1       -0.2742
      4 N          62.3343   89.5516   10.4058 N.am    1  UNL1       -0.3033
      5 H          62.7591   89.1541    9.6115 H       1  UNL1        0.1495
      6 C          62.6021   90.9838   10.7620 C.3     1  UNL1        0.0941
      7 C          63.8326   91.6679   10.2443 C.3     1  UNL1        0.0492
      8 C          64.8076   92.2843   11.2032 C.ar    1  UNL1       -0.0013
      9 C          64.8832   91.7898   12.6173 C.ar    1  UNL1       -0.0011
     10 C          65.8582   92.4062   13.5763 C.ar    1  UNL1        0.0204
     11 C          66.7575   93.5170   13.1211 C.ar    1  UNL1        0.0989
     12 N          66.6819   94.0115   11.7069 N.ar    1  UNL1       -0.2426
     13 C          65.7069   93.3952   10.7480 C.ar    1  UNL1        0.0946
     14 S          61.6303   86.1934   11.8050 S.3     1  UNL1       -0.1298
     15 C          63.0899   86.0713   12.1287 C.3     1  UNL1        0.0780
     16 C          63.5309   85.2556   13.3078 C.3     1  UNL1        0.0899
     17 C          62.6523   83.3206   14.8025 C.2     1  UNL1        0.4014
     18 O          62.7083   84.2210   16.0010 O.2     1  UNL1       -0.2264
     19 N          63.0636   83.8379   13.4559 N.am    1  UNL1       -0.2711
     20 H          63.0269   83.2469   12.6694 H       1  UNL1        0.1527
     21 O          62.1851   81.9030   14.9507 O.3     1  UNL1       -0.4419
     22 C          60.8505   80.7201   13.8020 C.3     1  UNL1        0.0437
     23 C          62.3341   80.9410   13.8094 C.3     1  UNL1        0.1378
     24 C          63.8177   81.1619   13.8169 C.3     1  UNL1        0.0437
     25 C          62.4830   79.9790   12.6682 C.3     1  UNL1        0.0437
     26 C          64.4391   85.8575   14.3387 C.3     1  UNL1        0.0469
     27 C          64.0409   87.1204   15.0433 C.ar    1  UNL1       -0.0205
     28 C          63.4049   87.0536   16.4002 C.ar    1  UNL1       -0.0042
     29 C          63.0067   88.3165   17.1048 C.ar    1  UNL1       -0.0003
     30 C          63.2444   89.6462   16.4526 C.ar    1  UNL1       -0.0000
     31 C          63.8804   89.7130   15.0958 C.ar    1  UNL1       -0.0003
     32 C          64.2786   88.4501   14.3911 C.ar    1  UNL1       -0.0042
     33 C          60.4048   86.9594    9.6460 C.3     1  UNL1        0.0463
     34 C          61.0614   86.1324    8.5806 C.ar    1  UNL1       -0.0208
     35 C          62.5264   85.8226    8.6680 C.ar    1  UNL1       -0.0042
     36 C          63.1830   84.9956    7.6026 C.ar    1  UNL1       -0.0003
     37 C          62.3745   84.4785    6.4498 C.ar    1  UNL1       -0.0000
     38 C          60.9095   84.7883    6.3624 C.ar    1  UNL1       -0.0003
     39 C          60.2529   85.6153    7.4278 C.ar    1  UNL1       -0.0042
@<TRIPOS>BOND
     1    22    23    1
     2    23    24    1
     3    23    25    1
     4    23    21    1
     5    21    17    1
     6    17    18    2
     7    17    19   am
     8    19    16    1
     9    16    15    1
    10    15    14    1
    11    14     1    1
    12     1    33    1
    13    33    34    1
    14    34    35   ar
    15    35    36   ar
    16    36    37   ar
    17    37    38   ar
    18    38    39   ar
    19     1     2    1
    20     2     3    2
    21     2     4   am
    22     4     6    1
    23     6     7    1
    24     7     8    1
    25     8     9   ar
    26     9    10   ar
    27    10    11   ar
    28    11    12   ar
    29    12    13   ar
    30    16    26    1
    31    26    27    1
    32    27    28   ar
    33    28    29   ar
    34    29    30   ar
    35    30    31   ar
    36    31    32   ar
    37    39    34   ar
    38    13     8   ar
    39    32    27   ar
    40    19    20    1
    41     4     5    1
@<TRIPOS>MOLECULE
*****
 39 41 0 0 0
SMALL
GASTEIGER

@<TRIPOS>ATOM
      1 C          63.5306   90.4434   13.3745 C.3     1  UNL1        0.1281
      2 C          64.4760   91.3445   12.6367 C.2     1  UNL1        0.2325
      3 O          64.2290   91.6705   11.1936 O.2     1  UNL1       -0.2742
      4 N          65.6683   91.9197   13.3421 N.am    1  UNL1       -0.3033
      5 H          65.8304   91.7057   14.2893 H       1  UNL1        0.1495
      6 C          66.6136   92.8208   12.6044 C.3     1  UNL1        0.0941
      7 C          66.1850   94.2069   12.2233 C.3     1  UNL1        0.0492
      8 C          66.6142   94.7901   10.9097 C.ar    1  UNL1       -0.0013
      9 C          67.1228   93.8924    9.8209 C.ar    1  UNL1       -0.0011
     10 C          67.5521   94.4756    8.5073 C.ar    1  UNL1        0.0204
     11 C          67.4728   95.9565    8.2824 C.ar    1  UNL1        0.0989
     12 N          66.9642   96.8543    9.3713 N.ar    1  UNL1       -0.2426
     13 C          66.5349   96.2710   10.6849 C.ar    1  UNL1        0.0946
     14 S          62.4269   89.7472   12.6347 S.3     1  UNL1       -0.1298
     15 C          62.7516   88.6660   11.6469 C.3     1  UNL1        0.0780
     16 C          62.0261   87.3544   11.7052 C.3     1  UNL1        0.0899
     17 C          63.0991   85.0264   11.2821 C.2     1  UNL1        0.4014
     18 O          62.7732   85.1415    9.8224 O.2     1  UNL1       -0.2264
     19 N          62.7256   86.1328   12.2235 N.am    1  UNL1       -0.2711
     20 H          62.9395   86.0573   13.1815 H       1  UNL1        0.1527
     21 O          63.7986   83.8049   11.8003 O.3     1  UNL1       -0.4419
     22 C          64.5259   82.6069   10.2078 C.3     1  UNL1        0.0437
     23 C          63.4558   82.4532   11.2476 C.3     1  UNL1        0.1378
     24 C          62.3857   82.2994   12.2875 C.3     1  UNL1        0.0437
     25 C          63.1130   81.1015   10.6950 C.3     1  UNL1        0.0437
     26 C          60.6013   87.2644   11.2452 C.3     1  UNL1        0.0469
     27 C          60.2383   87.6643    9.8459 C.ar    1  UNL1       -0.0205
     28 C          60.1920   89.1154    9.4686 C.ar    1  UNL1       -0.0042
     29 C          59.8289   89.5154    8.0693 C.ar    1  UNL1       -0.0003
     30 C          59.5122   88.4643    7.0471 C.ar    1  UNL1       -0.0000
     31 C          59.5585   87.0132    7.4242 C.ar    1  UNL1       -0.0003
     32 C          59.9216   86.6132    8.8237 C.ar    1  UNL1       -0.0042
     33 C          63.6889   90.2384   14.8519 C.3     1  UNL1        0.0463
     34 C          63.6726   88.8513   15.4227 C.ar    1  UNL1       -0.0208
     35 C          62.9139   88.5687   16.6854 C.ar    1  UNL1       -0.0042
     36 C          62.8977   87.1816   17.2561 C.ar    1  UNL1       -0.0003
     37 C          63.6401   86.0771   16.5641 C.ar    1  UNL1       -0.0000
     38 C          64.3988   86.3597   15.3014 C.ar    1  UNL1       -0.0003
     39 C          64.4151   87.7468   14.7307 C.ar    1  UNL1       -0.0042
@<TRIPOS>BOND
     1    22    23    1
     2    23    24    1
     3    23    25    1
     4    23    21    1
     5    21    17    1
     6    17    18    2
     7    17    19   am
     8    19    16    1
     9    16    15    1
    10    15    14    1
    11    14     1    1
    12     1    33    1
    13    33    34    1
    14    34    35   ar
    15    35    36   ar
    16    36    37   ar
    17    37    38   ar
    18    38    39   ar
    19     1     2    1
    20     2     3    2
    21     2     4   am
    22     4     6    1
    23     6     7    1
    24     7     8    1
    25     8     9   ar
    26     9    10   ar
    27    10    11   ar
    28    11    12   ar
    29    12    13   ar
    30    16    26    1
    31    26    27    1
    32    27    28   ar
    33    28    29   ar
    34    29    30   ar
    35    30    31   ar
    36    31    32   ar
    37    39    34   ar
    38    13     8   ar
    39    32    27   ar
    40    19    20    1
    41     4     5    1
@<TRIPOS>MOLECULE
*****
 39 41 0 0 0
SMALL
GASTEIGER

@<TRIPOS>ATOM
      1 C          61.5559   88.1317   11.0924 C.3     1  UNL1        0.1281
      2 C          60.5570   88.9107   10.2890 C.2     1  UNL1        0.2325
      3 O          59.6366   89.8786   10.9717 O.2     1  UNL1       -0.2742
      4 N          60.4786   88.7219    8.8030 N.am    1  UNL1       -0.3033
      5 H          61.0827   88.0867    8.3550 H       1  UNL1        0.1495
      6 C          59.4798   89.5009    7.9997 C.3     1  UNL1        0.0941
      7 C          59.3571   89.2654    6.5234 C.3     1  UNL1        0.0492
      8 C          59.4531   90.4190    5.5694 C.ar    1  UNL1       -0.0013
      9 C          60.7721   90.7700    4.9473 C.ar    1  UNL1       -0.0011
     10 C          60.8682   91.9235    3.9933 C.ar    1  UNL1        0.0204
     11 C          59.6451   92.7260    3.6613 C.ar    1  UNL1        0.0989
     12 N          58.3261   92.3750    4.2834 N.ar    1  UNL1       -0.2426
     13 C          58.2301   91.2215    5.2374 C.ar    1  UNL1        0.0946
     14 S          62.8406   88.7767   11.5208 S.3     1  UNL1       -0.1298
     15 C          62.8129   90.0538   12.3071 C.3     1  UNL1        0.0780
     16 C          63.9128   90.3595   13.2802 C.3     1  UNL1        0.0899
     17 C          63.5027   88.9062   15.3944 C.2     1  UNL1        0.4014
     18 O          62.1652   89.5586   15.5833 O.2     1  UNL1       -0.2264
     19 N          64.3765   89.3067   14.2428 N.am    1  UNL1       -0.2711
     20 H          65.2543   88.8785   14.1188 H       1  UNL1        0.1527
     21 O          63.9663   87.8535   16.3571 O.3     1  UNL1       -0.4419
     22 C          62.5987   86.6757   17.4717 C.3     1  UNL1        0.0437
     23 C          63.4386   86.4535   16.2489 C.3     1  UNL1        0.1378
     24 C          64.2785   86.2314   15.0261 C.3     1  UNL1        0.0437
     25 C          62.9109   85.0536   16.1408 C.3     1  UNL1        0.0437
     26 C          64.5489   91.7178   13.2906 C.3     1  UNL1        0.0469
     27 C          65.8046   91.9518   14.0770 C.ar    1  UNL1       -0.0205
     28 C          67.1425   91.8077   13.4142 C.ar    1  UNL1       -0.0042
     29 C          68.3982   92.0417   14.2007 C.ar    1  UNL1       -0.0003
     30 C          68.3160   92.4199   15.6499 C.ar    1  UNL1       -0.0000
     31 C          66.9782   92.5641   16.3127 C.ar    1  UNL1       -0.0003
     32 C          65.7224   92.3300   15.5263 C.ar    1  UNL1       -0.0042
     33 C          61.2701   86.7078   11.4674 C.3     1  UNL1        0.0463
     34 C          62.1602   85.6078   10.9694 C.ar    1  UNL1       -0.0208
     35 C          62.6738   84.5693   11.9220 C.ar    1  UNL1       -0.0042
     36 C          63.5639   83.4695   11.4240 C.ar    1  UNL1       -0.0003
     37 C          63.9404   83.4082    9.9733 C.ar    1  UNL1       -0.0000
     38 C          63.4268   84.4467    9.0207 C.ar    1  UNL1       -0.0003
     39 C          62.5367   85.5466    9.5187 C.ar    1  UNL1       -0.0042
@<TRIPOS>BOND
     1    22    23    1
     2    23    24    1
     3    23    25    1
     4    23    21    1
     5    21    17    1
     6    17    18    2
     7    17    19   am
     8    19    16    1
     9    16    15    1
    10    15    14    1
    11    14     1    1
    12     1    33    1
    13    33    34    1
    14    34    35   ar
    15    35    36   ar
    16    36    37   ar
    17    37    38   ar
    18    38    39   ar
    19     1     2    1
    20     2     3    2
    21     2     4   am
    22     4     6    1
    23     6     7    1
    24     7     8    1
    25     8     9   ar
    26     9    10   ar
    27    10    11   ar
    28    11    12   ar
    29    12    13   ar
    30    16    26    1
    31    26    27    1
    32    27    28   ar
    33    28    29   ar
    34    29    30   ar
    35    30    31   ar
    36    31    32   ar
    37    39    34   ar
    38    13     8   ar
    39    32    27   ar
    40    19    20    1
    41     4     5    1
@<TRIPOS>MOLECULE
*****
 39 41 0 0 0
SMALL
GASTEIGER

@<TRIPOS>ATOM
      1 C          63.8853   89.3796   13.3239 C.3     1  UNL1        0.1281
      2 C          64.1223   90.6867   12.6270 C.2     1  UNL1        0.2325
      3 O          63.2206   91.1137   11.5069 O.2     1  UNL1       -0.2742
      4 N          65.2609   91.5667   13.0503 N.am    1  UNL1       -0.3033
      5 H          65.8527   91.2864   13.7855 H       1  UNL1        0.1495
      6 C          65.4978   92.8736   12.3535 C.3     1  UNL1        0.0941
      7 C          66.2760   92.9099   11.0716 C.3     1  UNL1        0.0492
      8 C          66.5950   94.2251   10.4248 C.ar    1  UNL1       -0.0013
      9 C          66.2839   95.5070   11.1389 C.ar    1  UNL1       -0.0011
     10 C          66.6030   96.8223   10.4921 C.ar    1  UNL1        0.0204
     11 C          67.2332   96.8556    9.1313 C.ar    1  UNL1        0.0989
     12 N          67.5443   95.5736    8.4173 N.ar    1  UNL1       -0.2426
     13 C          67.2252   94.2584    9.0640 C.ar    1  UNL1        0.0946
     14 S          62.9570   88.3665   12.7223 S.3     1  UNL1       -0.1298
     15 C          63.4213   86.9558   12.5117 C.3     1  UNL1        0.0780
     16 C          62.5791   85.9993   11.7205 C.3     1  UNL1        0.0899
     17 C          61.0106   86.7895    9.8059 C.2     1  UNL1        0.4014
     18 O          62.1621   86.7478    8.8454 O.2     1  UNL1       -0.2264
     19 N          61.2191   86.4152   11.2434 N.am    1  UNL1       -0.2711
     20 H          60.4634   86.4425   11.8738 H       1  UNL1        0.1527
     21 O          59.6507   87.2053    9.3288 O.3     1  UNL1       -0.4419
     22 C          60.0561   89.2542    8.9576 C.3     1  UNL1        0.0437
     23 C          59.5174   88.1152    8.1437 C.3     1  UNL1        0.1378
     24 C          58.9788   86.9761    7.3298 C.3     1  UNL1        0.0437
     25 C          59.3841   89.0250    6.9586 C.3     1  UNL1        0.0437
     26 C          63.0969   84.6270   11.4063 C.3     1  UNL1        0.0469
     27 C          62.7712   83.4770   12.3125 C.ar    1  UNL1       -0.0205
     28 C          62.4516   83.7271   13.7566 C.ar    1  UNL1       -0.0042
     29 C          62.1258   82.5770   14.6627 C.ar    1  UNL1       -0.0003
     30 C          62.1197   81.1767   14.1248 C.ar    1  UNL1       -0.0000
     31 C          62.4392   80.9266   12.6808 C.ar    1  UNL1       -0.0003
     32 C          62.7650   82.0767   11.7746 C.ar    1  UNL1       -0.0042
     33 C          64.5766   89.0858   14.6222 C.3     1  UNL1        0.0463
     34 C          64.0067   88.0638   15.5609 C.ar    1  UNL1       -0.0208
     35 C          63.1148   88.4949   16.6872 C.ar    1  UNL1       -0.0042
     36 C          62.5449   87.4730   17.6258 C.ar    1  UNL1       -0.0003
     37 C          62.8670   86.0201   17.4380 C.ar    1  UNL1       -0.0000
     38 C          63.7589   85.5890   16.3117 C.ar    1  UNL1       -0.0003
     39 C          64.3287   86.6109   15.3731 C.ar    1  UNL1       -0.0042
@<TRIPOS>BOND
     1    22    23    1
     2    23    24    1
     3    23    25    1
     4    23    21    1
     5    21    17    1
     6    17    18    2
     7    17    19   am
     8    19    16    1
     9    16    15    1
    10    15    14    1
    11    14     1    1
    12     1    33    1
    13    33    34    1
    14    34    35   ar
    15    35    36   ar
    16    36    37   ar
    17    37    38   ar
    18    38    39   ar
    19     1     2    1
    20     2     3    2
    21     2     4   am
    22     4     6    1
    23     6     7    1
    24     7     8    1
    25     8     9   ar
    26     9    10   ar
    27    10    11   ar
    28    11    12   ar
    29    12    13   ar
    30    16    26    1
    31    26    27    1
    32    27    28   ar
    33    28    29   ar
    34    29    30   ar
    35    30    31   ar
    36    31    32   ar
    37    39    34   ar
    38    13     8   ar
    39    32    27   ar
    40    19    20    1
    41     4     5    1
@<TRIPOS>MOLECULE
*****
 39 41 0 0 0
SMALL
GASTEIGER

@<TRIPOS>ATOM
      1 C          62.7051   89.9163   11.8610 C.3     1  UNL1        0.1281
      2 C          63.3511   89.5103   13.1525 C.2     1  UNL1        0.2325
      3 O          63.6866   90.5482   14.1821 O.2     1  UNL1       -0.2742
      4 N          63.6616   88.0663   13.4143 N.am    1  UNL1       -0.3033
      5 H          63.4414   87.3851   12.7385 H       1  UNL1        0.1495
      6 C          64.3076   87.6604   14.7057 C.3     1  UNL1        0.0941
      7 C          64.8224   86.2622   14.8798 C.3     1  UNL1        0.0492
      8 C          64.1812   85.1288   14.1355 C.ar    1  UNL1       -0.0013
      9 C          63.2900   85.4108   12.9624 C.ar    1  UNL1       -0.0011
     10 C          62.6487   84.2774   12.2180 C.ar    1  UNL1        0.0204
     11 C          62.8987   82.8618   12.6468 C.ar    1  UNL1        0.0989
     12 N          63.7899   82.5798   13.8200 N.ar    1  UNL1       -0.2426
     13 C          64.4312   83.7133   14.5643 C.ar    1  UNL1        0.0946
     14 S          63.4985   90.6575   10.8261 S.3     1  UNL1       -0.1298
     15 C          64.0346   92.0252   11.1296 C.3     1  UNL1        0.0780
     16 C          65.4754   92.1988   11.5090 C.3     1  UNL1        0.0899
     17 C          67.3469   91.8018   13.2669 C.2     1  UNL1        0.4014
     18 O          68.3674   91.7498   12.1686 O.2     1  UNL1       -0.2264
     19 N          65.9009   92.0263   12.9371 N.am    1  UNL1       -0.2711
     20 H          65.2312   92.0604   13.6578 H       1  UNL1        0.1527
     21 O          67.7725   91.6293   14.6948 O.3     1  UNL1       -0.4419
     22 C          66.8315   92.9343   16.0774 C.3     1  UNL1        0.0437
     23 C          68.2095   92.8196   15.4962 C.3     1  UNL1        0.1378
     24 C          69.5876   92.7049   14.9149 C.3     1  UNL1        0.0437
     25 C          68.6466   94.0099   16.2976 C.3     1  UNL1        0.0437
     26 C          66.4907   92.5448   10.4605 C.3     1  UNL1        0.0469
     27 C          66.7298   93.9791   10.0925 C.ar    1  UNL1       -0.0205
     28 C          67.4001   94.3187    8.7942 C.ar    1  UNL1       -0.0042
     29 C          67.6392   95.7530    8.4262 C.ar    1  UNL1       -0.0003
     30 C          67.2080   96.8479    9.3564 C.ar    1  UNL1       -0.0000
     31 C          66.5376   96.5084   10.6546 C.ar    1  UNL1       -0.0003
     32 C          66.2985   95.0740   11.0227 C.ar    1  UNL1       -0.0042
     33 C          61.2657   89.5811   11.6045 C.3     1  UNL1        0.0463
     34 C          60.8999   88.6526   10.4846 C.ar    1  UNL1       -0.0208
     35 C          61.2542   87.1976   10.5706 C.ar    1  UNL1       -0.0042
     36 C          60.8884   86.2692    9.4507 C.ar    1  UNL1       -0.0003
     37 C          60.1682   86.7958    8.2449 C.ar    1  UNL1       -0.0000
     38 C          59.8139   88.2507    8.1589 C.ar    1  UNL1       -0.0003
     39 C          60.1797   89.1792    9.2787 C.ar    1  UNL1       -0.0042
@<TRIPOS>BOND
     1    22    23    1
     2    23    24    1
     3    23    25    1
     4    23    21    1
     5    21    17    1
     6    17    18    2
     7    17    19   am
     8    19    16    1
     9    16    15    1
    10    15    14    1
    11    14     1    1
    12     1    33    1
    13    33    34    1
    14    34    35   ar
    15    35    36   ar
    16    36    37   ar
    17    37    38   ar
    18    38    39   ar
    19     1     2    1
    20     2     3    2
    21     2     4   am
    22     4     6    1
    23     6     7    1
    24     7     8    1
    25     8     9   ar
    26     9    10   ar
    27    10    11   ar
    28    11    12   ar
    29    12    13   ar
    30    16    26    1
    31    26    27    1
    32    27    28   ar
    33    28    29   ar
    34    29    30   ar
    35    30    31   ar
    36    31    32   ar
    37    39    34   ar
    38    13     8   ar
    39    32    27   ar
    40    19    20    1
    41     4     5    1
@<TRIPOS>MOLECULE
*****
 39 41 0 0 0
SMALL
GASTEIGER

@<TRIPOS>ATOM
      1 C          62.3846   88.5660   11.3277 C.3     1  UNL1        0.1281
      2 C          63.0779   88.0902   12.5699 C.2     1  UNL1        0.2325
      3 O          63.5378   89.0807   13.5982 O.2     1  UNL1       -0.2742
      4 N          63.3111   86.6240   12.7838 N.am    1  UNL1       -0.3033
      5 H          63.0093   85.9739   12.1089 H       1  UNL1        0.1495
      6 C          64.0044   86.1483   14.0260 C.3     1  UNL1        0.0941
      7 C          64.7024   84.8206   14.0337 C.3     1  UNL1        0.0492
      8 C          63.9566   83.5790   13.6435 C.ar    1  UNL1       -0.0013
      9 C          63.7329   83.2627   12.1945 C.ar    1  UNL1       -0.0011
     10 C          62.9871   82.0210   11.8042 C.ar    1  UNL1        0.0204
     11 C          62.4652   81.0957   12.8632 C.ar    1  UNL1        0.0989
     12 N          62.6889   81.4120   14.3123 N.ar    1  UNL1       -0.2426
     13 C          63.4347   82.6536   14.7025 C.ar    1  UNL1        0.0946
     14 S          62.9086   89.7606   10.5872 S.3     1  UNL1       -0.1298
     15 C          62.9363   91.1038   11.2545 C.3     1  UNL1        0.0780
     16 C          64.2488   91.7628   11.5596 C.3     1  UNL1        0.0899
     17 C          65.7943   92.1103   13.6189 C.2     1  UNL1        0.4014
     18 O          65.5520   93.5892   13.5510 O.2     1  UNL1       -0.2264
     19 N          65.1426   91.1972   12.6232 N.am    1  UNL1       -0.2711
     20 H          65.3016   90.2266   12.6677 H       1  UNL1        0.1527
     21 O          66.6881   91.5448   14.6825 O.3     1  UNL1       -0.4419
     22 C          67.0853   92.6928   16.4216 C.3     1  UNL1        0.0437
     23 C          67.8557   92.3424   15.1831 C.3     1  UNL1        0.1378
     24 C          68.6260   91.9919   13.9447 C.3     1  UNL1        0.0437
     25 C          69.0233   93.1399   15.6837 C.3     1  UNL1        0.0437
     26 C          64.6675   92.9873   10.8012 C.3     1  UNL1        0.0469
     27 C          66.0667   93.1001   10.2725 C.ar    1  UNL1       -0.0205
     28 C          66.9648   91.8986   10.2651 C.ar    1  UNL1       -0.0042
     29 C          68.3640   92.0115    9.7365 C.ar    1  UNL1       -0.0003
     30 C          68.8651   93.3257    9.2153 C.ar    1  UNL1       -0.0000
     31 C          67.9671   94.5271    9.2227 C.ar    1  UNL1       -0.0003
     32 C          66.5678   94.4143    9.7514 C.ar    1  UNL1       -0.0042
     33 C          61.1674   87.8472   10.8260 C.3     1  UNL1        0.0463
     34 C          61.2616   86.9690    9.6135 C.ar    1  UNL1       -0.0208
     35 C          62.5295   86.2211    9.3257 C.ar    1  UNL1       -0.0042
     36 C          62.6236   85.3429    8.1133 C.ar    1  UNL1       -0.0003
     37 C          61.4497   85.2127    7.1887 C.ar    1  UNL1       -0.0000
     38 C          60.1817   85.9606    7.4764 C.ar    1  UNL1       -0.0003
     39 C          60.0876   86.8388    8.6889 C.ar    1  UNL1       -0.0042
@<TRIPOS>BOND
     1    22    23    1
     2    23    24    1
     3    23    25    1
     4    23    21    1
     5    21    17    1
     6    17    18    2
     7    17    19   am
     8    19    16    1
     9    16    15    1
    10    15    14    1
    11    14     1    1
    12     1    33    1
    13    33    34    1
    14    34    35   ar
    15    35    36   ar
    16    36    37   ar
    17    37    38   ar
    18    38    39   ar
    19     1     2    1
    20     2     3    2
    21     2     4   am
    22     4     6    1
    23     6     7    1
    24     7     8    1
    25     8     9   ar
    26     9    10   ar
    27    10    11   ar
    28    11    12   ar
    29    12    13   ar
    30    16    26    1
    31    26    27    1
    32    27    28   ar
    33    28    29   ar
    34    29    30   ar
    35    30    31   ar
    36    31    32   ar
    37    39    34   ar
    38    13     8   ar
    39    32    27   ar
    40    19    20    1
    41     4     5    1
@<TRIPOS>MOLECULE
*****
 39 41 0 0 0
SMALL
GASTEIGER

@<TRIPOS>ATOM
      1 C          63.3414   91.0186   11.3528 C.3     1  UNL1        0.1281
      2 C          62.2834   89.9798   11.1257 C.2     1  UNL1        0.2325
      3 O          60.8677   90.3972   10.8582 O.2     1  UNL1       -0.2742
      4 N          62.6411   88.5237   11.1662 N.am    1  UNL1       -0.3033
      5 H          63.5702   88.2497   11.3418 H       1  UNL1        0.1495
      6 C          61.5830   87.4849   10.9392 C.3     1  UNL1        0.0941
      7 C          61.8695   86.3016   10.0628 C.3     1  UNL1        0.0492
      8 C          62.6285   85.1293   10.6101 C.ar    1  UNL1       -0.0013
      9 C          63.4103   84.2443    9.6853 C.ar    1  UNL1       -0.0011
     10 C          64.1694   83.0718   10.2325 C.ar    1  UNL1        0.0204
     11 C          64.1465   82.7846   11.7046 C.ar    1  UNL1        0.0989
     12 N          63.3646   83.6697   12.6294 N.ar    1  UNL1       -0.2426
     13 C          62.6056   84.8421   12.0822 C.ar    1  UNL1        0.0946
     14 S          63.9232   91.2098   12.7221 S.3     1  UNL1       -0.1298
     15 C          63.2372   90.6181   13.9177 C.3     1  UNL1        0.0780
     16 C          63.9592   90.5303   15.2296 C.3     1  UNL1        0.0899
     17 C          65.3917   92.3758   16.3664 C.2     1  UNL1        0.4014
     18 O          64.1914   92.8284   17.1440 O.2     1  UNL1       -0.2264
     19 N          65.2756   91.2268   15.4092 N.am    1  UNL1       -0.2711
     20 H          66.0633   90.9298   14.8988 H       1  UNL1        0.1527
     21 O          66.7080   93.0723   16.5460 O.3     1  UNL1       -0.4419
     22 C          66.9989   93.7001   14.5407 C.3     1  UNL1        0.0437
     23 C          67.7945   92.8971   15.5267 C.3     1  UNL1        0.1378
     24 C          68.5900   92.0941   16.5128 C.3     1  UNL1        0.0437
     25 C          68.8809   92.7219   14.5075 C.3     1  UNL1        0.0437
     26 C          63.3650   89.7462   16.3618 C.3     1  UNL1        0.0469
     27 C          63.4076   88.2470   16.3394 C.ar    1  UNL1       -0.0205
     28 C          64.1331   87.5336   15.2371 C.ar    1  UNL1       -0.0042
     29 C          64.1757   86.0345   15.2147 C.ar    1  UNL1       -0.0003
     30 C          63.4928   85.2485   16.2945 C.ar    1  UNL1       -0.0000
     31 C          62.7673   85.9617   17.3967 C.ar    1  UNL1       -0.0003
     32 C          62.7247   87.4610   17.4192 C.ar    1  UNL1       -0.0042
     33 C          63.8177   91.8662   10.2106 C.3     1  UNL1        0.0463
     34 C          65.1220   92.6000   10.3140 C.ar    1  UNL1       -0.0208
     35 C          66.4137   91.8666   10.1053 C.ar    1  UNL1       -0.0042
     36 C          67.7178   92.6004   10.2087 C.ar    1  UNL1       -0.0003
     37 C          67.7302   94.0676   10.5208 C.ar    1  UNL1       -0.0000
     38 C          66.4385   94.8009   10.7294 C.ar    1  UNL1       -0.0003
     39 C          65.1343   94.0671   10.6260 C.ar    1  UNL1       -0.0042
@<TRIPOS>BOND
     1    22    23    1
     2    23    24    1
     3    23    25    1
     4    23    21    1
     5    21    17    1
     6    17    18    2
     7    17    19   am
     8    19    16    1
     9    16    15    1
    10    15    14    1
    11    14     1    1
    12     1    33    1
    13    33    34    1
    14    34    35   ar
    15    35    36   ar
    16    36    37   ar
    17    37    38   ar
    18    38    39   ar
    19     1     2    1
    20     2     3    2
    21     2     4   am
    22     4     6    1
    23     6     7    1
    24     7     8    1
    25     8     9   ar
    26     9    10   ar
    27    10    11   ar
    28    11    12   ar
    29    12    13   ar
    30    16    26    1
    31    26    27    1
    32    27    28   ar
    33    28    29   ar
    34    29    30   ar
    35    30    31   ar
    36    31    32   ar
    37    39    34   ar
    38    13     8   ar
    39    32    27   ar
    40    19    20    1
    41     4     5    1
