@<TRIPOS>MOLECULE
*****
 36 40 0 0 0
SMALL
GASTEIGER

@<TRIPOS>ATOM
      1 C          63.5613   88.2649   15.4607 C.3     1  UNL1        0.2246
      2 C          63.6636   86.7876   15.2221 C.2     1  UNL1        0.0436
      3 C          63.4030   85.8269   16.3443 C.2     1  UNL1        0.0288
      4 C          63.0401   86.3435   17.7050 C.2     1  UNL1        0.0896
      5 N          62.9378   87.8208   17.9435 N.am    1  UNL1       -0.1770
      6 C          63.1984   88.7815   16.8214 C.2     1  UNL1        0.2627
      7 O          63.0961   90.2589   17.0599 O.2     1  UNL1       -0.2719
      8 C          62.1845   90.3319   10.0833 C.3     1  UNL1        0.0312
      9 C          63.3165   90.9340   10.8617 C.2     1  UNL1        0.0126
     10 C          64.1082   92.0670   10.2792 C.2     1  UNL1        0.0036
     11 C          65.2402   92.6691   11.0576 C.2     1  UNL1        0.0848
     12 C          65.5806   92.1382   12.4186 C.2     1  UNL1        0.0541
     13 C          64.7889   91.0051   13.0011 C.2     1  UNL1        0.2236
     14 N          64.8909   90.2775   14.3089 N.2     1  UNL1       -0.0378
     15 C          63.8219   89.2257   14.3386 C.2     1  UNL1        0.3605
     16 N          63.0592   89.3032   13.0493 N.2     1  UNL1       -0.0547
     17 C          63.6568   90.4030   12.2227 C.3     1  UNL1        0.2975
     18 C          66.0319   93.8023   10.4750 C.2     1  UNL1        0.3188
     19 N          65.6517   95.2529   10.5097 N.2     1  UNL1       -0.0607
     20 C          66.7276   96.0308    9.8116 C.3     1  UNL1        0.3135
     21 C          67.7727   95.0610    9.3456 C.3     1  UNL1        0.2608
     22 N          67.3427   93.6837    9.7556 N.pl3   1  UNL1       -0.1829
     23 C          68.0921   92.4112    9.4923 C.3     1  UNL1        0.2536
     24 N          64.0265   86.2709   13.8616 N.pl3   1  UNL1       -0.3329
     25 H          64.2247   86.9017   13.1322 H       1  UNL1        0.1466
     26 C          64.0876   84.7930   13.6122 C.3     1  UNL1        0.1211
     27 C          63.0728   84.1403   12.7210 C.3     1  UNL1        0.1522
     28 O          62.4041   82.8685   13.1516 O.3     1  UNL1       -0.3783
     29 H          62.7390   82.6062   14.0234 H       1  UNL1        0.2109
     30 C          62.7267   84.7593   11.3993 C.ar    1  UNL1        0.0067
     31 C          63.4676   84.3482   10.1616 C.ar    1  UNL1       -0.0018
     32 C          63.1215   84.9673    8.8398 C.ar    1  UNL1        0.0006
     33 C          62.0345   85.9975    8.7558 C.ar    1  UNL1        0.0114
     34 C          61.2936   86.4086    9.9935 C.ar    1  UNL1        0.0574
     35 CL         60.2066   87.4389    9.9095 Cl      1  UNL1       -0.0823
     36 C          61.6397   85.7896   11.3153 C.ar    1  UNL1        0.0095
@<TRIPOS>BOND
     1     8     9    1
     2     9    10    2
     3    10    11    1
     4    11    18    1
     5    18    19    2
     6    19    20    1
     7    20    21    1
     8    21    22    1
     9    22    23    1
    10    11    12    2
    11    12    13    1
    12    13    14    2
    13    14    15    1
    14    15     1    1
    15     1     2    1
    16     2    24    1
    17    24    26    1
    18    26    27    1
    19    27    28    1
    20    27    30    1
    21    30    31   ar
    22    31    32   ar
    23    32    33   ar
    24    33    34   ar
    25    34    35    1
    26    34    36   ar
    27     2     3    2
    28     3     4    1
    29     4     5    2
    30     5     6    1
    31     6     7    2
    32    15    16    2
    33    16    17    1
    34    17     9    1
    35    22    18    1
    36    17    13    1
    37     6     1    1
    38    36    30   ar
    39    24    25    1
    40    28    29    1
@<TRIPOS>MOLECULE
*****
 36 40 0 0 0
SMALL
GASTEIGER

@<TRIPOS>ATOM
      1 C          63.6182   88.4167   15.5208 C.3     1  UNL1        0.2246
      2 C          63.8026   86.9413   15.3228 C.2     1  UNL1        0.0436
      3 C          63.5390   85.9939   16.4555 C.2     1  UNL1        0.0288
      4 C          63.0911   86.5218   17.7862 C.2     1  UNL1        0.0896
      5 N          62.9068   87.9972   17.9842 N.am    1  UNL1       -0.1770
      6 C          63.1703   88.9446   16.8514 C.2     1  UNL1        0.2627
      7 O          62.9860   90.4200   17.0494 O.2     1  UNL1       -0.2719
      8 C          62.2970   90.3775   10.0899 C.3     1  UNL1        0.0312
      9 C          63.4062   91.0100   10.8771 C.2     1  UNL1        0.0126
     10 C          64.1890   92.1468   10.2898 C.2     1  UNL1        0.0036
     11 C          65.2981   92.7793   11.0769 C.2     1  UNL1        0.0848
     12 C          65.6246   92.2751   12.4514 C.2     1  UNL1        0.0541
     13 C          64.8418   91.1383   13.0387 C.2     1  UNL1        0.2236
     14 N          64.9340   90.4328   14.3592 N.2     1  UNL1       -0.0378
     15 C          63.8817   89.3641   14.3881 C.2     1  UNL1        0.3605
     16 N          63.1392   89.4093   13.0855 N.2     1  UNL1       -0.0547
     17 C          63.7326   90.5058   12.2516 C.3     1  UNL1        0.2975
     18 C          66.0810   93.9162   10.4895 C.2     1  UNL1        0.3188
     19 N          65.7225   95.3702   10.5745 N.2     1  UNL1       -0.0607
     20 C          66.7796   96.1512    9.8516 C.3     1  UNL1        0.3135
     21 C          67.7914   95.1798    9.3198 C.3     1  UNL1        0.2608
     22 N          67.3596   93.7985    9.7141 N.pl3   1  UNL1       -0.1829
     23 C          68.0800   92.5233    9.3899 C.3     1  UNL1        0.2536
     24 N          64.2504   86.4133   13.9922 N.pl3   1  UNL1       -0.3329
     25 H          64.6007   87.0308   13.3101 H       1  UNL1        0.1466
     26 C          64.1645   84.9444   13.7006 C.3     1  UNL1        0.1211
     27 C          62.9727   84.3919   12.9766 C.3     1  UNL1        0.1522
     28 O          61.9611   85.3233   12.3772 O.3     1  UNL1       -0.3783
     29 H          62.2261   86.2409   12.5468 H       1  UNL1        0.2109
     30 C          62.7924   82.9080   12.8519 C.ar    1  UNL1        0.0067
     31 C          62.4027   82.0964   14.0516 C.ar    1  UNL1       -0.0018
     32 C          62.2224   80.6125   13.9269 C.ar    1  UNL1        0.0006
     33 C          62.4318   79.9402   12.6025 C.ar    1  UNL1        0.0114
     34 C          62.8216   80.7518   11.4028 C.ar    1  UNL1        0.0574
     35 CL         63.0310   80.0795   10.0784 Cl      1  UNL1       -0.0823
     36 C          63.0019   82.2357   11.5275 C.ar    1  UNL1        0.0095
@<TRIPOS>BOND
     1     8     9    1
     2     9    10    2
     3    10    11    1
     4    11    18    1
     5    18    19    2
     6    19    20    1
     7    20    21    1
     8    21    22    1
     9    22    23    1
    10    11    12    2
    11    12    13    1
    12    13    14    2
    13    14    15    1
    14    15     1    1
    15     1     2    1
    16     2    24    1
    17    24    26    1
    18    26    27    1
    19    27    28    1
    20    27    30    1
    21    30    31   ar
    22    31    32   ar
    23    32    33   ar
    24    33    34   ar
    25    34    35    1
    26    34    36   ar
    27     2     3    2
    28     3     4    1
    29     4     5    2
    30     5     6    1
    31     6     7    2
    32    15    16    2
    33    16    17    1
    34    17     9    1
    35    22    18    1
    36    17    13    1
    37     6     1    1
    38    36    30   ar
    39    24    25    1
    40    28    29    1
@<TRIPOS>MOLECULE
*****
 36 40 0 0 0
SMALL
GASTEIGER

@<TRIPOS>ATOM
      1 C          64.0041   89.9049   14.9139 C.3     1  UNL1        0.2246
      2 C          64.8467   91.0256   14.3811 C.2     1  UNL1        0.0436
      3 C          65.1459   92.2150   15.2448 C.2     1  UNL1        0.0288
      4 C          64.6025   92.2837   16.6412 C.2     1  UNL1        0.0896
      5 N          63.7598   91.1629   17.1740 N.am    1  UNL1       -0.1770
      6 C          63.4606   89.9736   16.3103 C.2     1  UNL1        0.2627
      7 O          62.6179   88.8528   16.8431 O.2     1  UNL1       -0.2719
      8 C          61.8505   87.6681    9.8697 C.3     1  UNL1        0.0312
      9 C          62.4179   86.7617   10.9216 C.2     1  UNL1        0.0126
     10 C          62.4424   85.2784   10.6997 C.2     1  UNL1        0.0036
     11 C          63.0098   84.3720   11.7514 C.2     1  UNL1        0.0848
     12 C          63.5526   84.9487   13.0254 C.2     1  UNL1        0.0541
     13 C          63.5281   86.4320   13.2473 C.2     1  UNL1        0.2236
     14 N          63.9880   87.2830   14.3937 N.2     1  UNL1       -0.0378
     15 C          63.7048   88.7155   14.0503 C.2     1  UNL1        0.3605
     16 N          63.0700   88.7498   12.6917 N.2     1  UNL1       -0.0547
     17 C          62.9607   87.3385   12.1954 C.3     1  UNL1        0.2975
     18 C          63.0343   82.8886   11.5295 C.2     1  UNL1        0.3188
     19 N          63.5014   82.1907   10.2866 N.2     1  UNL1       -0.0607
     20 C          63.3519   80.7136   10.5004 C.3     1  UNL1        0.3135
     21 C          62.7923   80.4985   11.8753 C.3     1  UNL1        0.2608
     22 N          62.5960   81.8428   12.5114 N.pl3   1  UNL1       -0.1829
     23 C          62.0562   82.0966   13.8877 C.3     1  UNL1        0.2536
     24 N          65.3902   90.9570   12.9848 N.pl3   1  UNL1       -0.3329
     25 H          65.9938   90.2232   12.7270 H       1  UNL1        0.1466
     26 C          65.0142   92.0064   11.9811 C.3     1  UNL1        0.1211
     27 C          65.8299   93.2598   11.8653 C.3     1  UNL1        0.1522
     28 O          65.8098   94.2727   12.9715 O.3     1  UNL1       -0.3783
     29 H          65.2241   93.9651   13.6809 H       1  UNL1        0.2109
     30 C          66.6656   93.5005   10.6431 C.ar    1  UNL1        0.0067
     31 C          67.5539   92.4129   10.1159 C.ar    1  UNL1       -0.0018
     32 C          68.3897   92.6535    8.8938 C.ar    1  UNL1        0.0006
     33 C          68.3372   93.9818    8.1988 C.ar    1  UNL1        0.0114
     34 C          67.4489   95.0694    8.7261 C.ar    1  UNL1        0.0574
     35 CL         67.3964   96.3977    8.0312 Cl      1  UNL1       -0.0823
     36 C          66.6131   94.8288    9.9482 C.ar    1  UNL1        0.0095
@<TRIPOS>BOND
     1     8     9    1
     2     9    10    2
     3    10    11    1
     4    11    18    1
     5    18    19    2
     6    19    20    1
     7    20    21    1
     8    21    22    1
     9    22    23    1
    10    11    12    2
    11    12    13    1
    12    13    14    2
    13    14    15    1
    14    15     1    1
    15     1     2    1
    16     2    24    1
    17    24    26    1
    18    26    27    1
    19    27    28    1
    20    27    30    1
    21    30    31   ar
    22    31    32   ar
    23    32    33   ar
    24    33    34   ar
    25    34    35    1
    26    34    36   ar
    27     2     3    2
    28     3     4    1
    29     4     5    2
    30     5     6    1
    31     6     7    2
    32    15    16    2
    33    16    17    1
    34    17     9    1
    35    22    18    1
    36    17    13    1
    37     6     1    1
    38    36    30   ar
    39    24    25    1
    40    28    29    1
@<TRIPOS>MOLECULE
*****
 36 40 0 0 0
SMALL
GASTEIGER

@<TRIPOS>ATOM
      1 C          62.8605   84.5139   13.4211 C.3     1  UNL1        0.2246
      2 C          63.0860   83.6402   12.2228 C.2     1  UNL1        0.0436
      3 C          62.7022   82.1908   12.2687 C.2     1  UNL1        0.0288
      4 C          62.0931   81.6151   13.5126 C.2     1  UNL1        0.0896
      5 N          61.8676   82.4888   14.7109 N.am    1  UNL1       -0.1770
      6 C          62.2514   83.9382   14.6651 C.2     1  UNL1        0.2627
      7 O          62.0259   84.8119   15.8633 O.2     1  UNL1       -0.2719
      8 C          62.5147   89.8080   10.7872 C.3     1  UNL1        0.0312
      9 C          63.3408   89.6284   12.0262 C.2     1  UNL1        0.0126
     10 C          64.0862   90.7937   12.6062 C.2     1  UNL1        0.0036
     11 C          64.9122   90.6142   13.8452 C.2     1  UNL1        0.0848
     12 C          64.9930   89.2692   14.5044 C.2     1  UNL1        0.0541
     13 C          64.2477   88.1038   13.9245 C.2     1  UNL1        0.2236
     14 N          64.1381   86.6699   14.3509 N.2     1  UNL1       -0.0378
     15 C          63.2442   85.9632   13.3753 C.2     1  UNL1        0.3605
     16 N          62.8014   86.9604   12.3460 N.2     1  UNL1       -0.0547
     17 C          63.4216   88.2834   12.6854 C.3     1  UNL1        0.2975
     18 C          65.6576   91.7796   14.4251 C.2     1  UNL1        0.3188
     19 N          65.9435   92.0077   15.8799 N.2     1  UNL1       -0.0607
     20 C          66.7105   93.2906   16.0059 C.3     1  UNL1        0.3135
     21 C          66.8987   93.8554   14.6292 C.3     1  UNL1        0.2608
     22 N          66.2479   92.9216   13.6522 N.pl3   1  UNL1       -0.1829
     23 C          66.1966   93.0986   12.1635 C.3     1  UNL1        0.2536
     24 N          63.6951   84.2158   10.9788 N.pl3   1  UNL1       -0.3329
     25 H          64.5268   84.7395   11.0349 H       1  UNL1        0.1466
     26 C          63.0371   83.9934    9.6493 C.3     1  UNL1        0.1211
     27 C          62.8343   85.1458    8.7108 C.3     1  UNL1        0.1522
     28 O          63.9289   85.5456    7.7665 O.3     1  UNL1       -0.3783
     29 H          64.6931   84.9612    7.8912 H       1  UNL1        0.2109
     30 C          61.5367   85.8983    8.7167 C.ar    1  UNL1        0.0067
     31 C          60.6129   85.8096    7.5383 C.ar    1  UNL1       -0.0018
     32 C          59.3153   86.5621    7.5441 C.ar    1  UNL1        0.0006
     33 C          58.9416   87.4035    8.7284 C.ar    1  UNL1        0.0114
     34 C          59.8655   87.4922    9.9067 C.ar    1  UNL1        0.0574
     35 CL         59.4917   88.3336   11.0910 Cl      1  UNL1       -0.0823
     36 C          61.1630   86.7397    9.9009 C.ar    1  UNL1        0.0095
@<TRIPOS>BOND
     1     8     9    1
     2     9    10    2
     3    10    11    1
     4    11    18    1
     5    18    19    2
     6    19    20    1
     7    20    21    1
     8    21    22    1
     9    22    23    1
    10    11    12    2
    11    12    13    1
    12    13    14    2
    13    14    15    1
    14    15     1    1
    15     1     2    1
    16     2    24    1
    17    24    26    1
    18    26    27    1
    19    27    28    1
    20    27    30    1
    21    30    31   ar
    22    31    32   ar
    23    32    33   ar
    24    33    34   ar
    25    34    35    1
    26    34    36   ar
    27     2     3    2
    28     3     4    1
    29     4     5    2
    30     5     6    1
    31     6     7    2
    32    15    16    2
    33    16    17    1
    34    17     9    1
    35    22    18    1
    36    17    13    1
    37     6     1    1
    38    36    30   ar
    39    24    25    1
    40    28    29    1
@<TRIPOS>MOLECULE
*****
 36 40 0 0 0
SMALL
GASTEIGER

@<TRIPOS>ATOM
      1 C          62.9103   88.1260   12.3419 C.3     1  UNL1        0.2246
      2 C          63.4369   89.3490   13.0325 C.2     1  UNL1        0.0436
      3 C          64.2431   89.2116   14.2900 C.2     1  UNL1        0.0288
      4 C          64.5227   87.8513   14.8569 C.2     1  UNL1        0.0896
      5 N          63.9962   86.6283   14.1662 N.am    1  UNL1       -0.1770
      6 C          63.1900   86.7657   12.9087 C.2     1  UNL1        0.2627
      7 O          62.6634   85.5427   12.2181 O.2     1  UNL1       -0.2719
      8 C          60.2465   85.6183    7.6836 C.3     1  UNL1        0.0312
      9 C          60.2060   87.1059    7.8720 C.2     1  UNL1        0.0126
     10 C          59.4876   87.9686    6.8772 C.2     1  UNL1        0.0036
     11 C          59.4470   89.4561    7.0656 C.2     1  UNL1        0.0848
     12 C          60.1249   90.0810    8.2488 C.2     1  UNL1        0.0541
     13 C          60.8433   89.2183    9.2436 C.2     1  UNL1        0.2236
     14 N          61.5975   89.5475   10.4977 N.2     1  UNL1       -0.0378
     15 C          62.1042   88.2633   11.0844 C.2     1  UNL1        0.3605
     16 N          61.6631   87.1405   10.1929 N.2     1  UNL1       -0.0547
     17 C          60.8839   87.7308    9.0552 C.3     1  UNL1        0.2975
     18 C          58.7285   90.3188    6.0707 C.2     1  UNL1        0.3188
     19 N          57.2421   90.4879    5.9615 N.2     1  UNL1       -0.0607
     20 C          56.9653   91.4374    4.8338 C.3     1  UNL1        0.3135
     21 C          58.2806   91.8552    4.2461 C.3     1  UNL1        0.2608
     22 N          59.3704   91.1639    5.0106 N.pl3   1  UNL1       -0.1829
     23 C          60.8434   91.2946    4.7591 C.3     1  UNL1        0.2536
     24 N          63.1573   90.7093   12.4658 N.pl3   1  UNL1       -0.3329
     25 H          62.3214   91.1760   12.6956 H       1  UNL1        0.1466
     26 C          64.1512   91.3587   11.5490 C.3     1  UNL1        0.1211
     27 C          65.1462   92.3392   12.0951 C.3     1  UNL1        0.1522
     28 O          65.2262   92.5821   13.5732 O.3     1  UNL1       -0.3783
     29 H          64.5710   92.0297   14.0275 H       1  UNL1        0.2109
     30 C          66.0614   93.0768   11.1633 C.ar    1  UNL1        0.0067
     31 C          65.9740   94.5701   11.0522 C.ar    1  UNL1       -0.0018
     32 C          66.8892   95.3077   10.1203 C.ar    1  UNL1        0.0006
     33 C          67.8918   94.5520    9.2995 C.ar    1  UNL1        0.0114
     34 C          67.9791   93.0587    9.4106 C.ar    1  UNL1        0.0574
     35 CL         68.9817   92.3030    8.5897 Cl      1  UNL1       -0.0823
     36 C          67.0640   92.3211   10.3424 C.ar    1  UNL1        0.0095
@<TRIPOS>BOND
     1     8     9    1
     2     9    10    2
     3    10    11    1
     4    11    18    1
     5    18    19    2
     6    19    20    1
     7    20    21    1
     8    21    22    1
     9    22    23    1
    10    11    12    2
    11    12    13    1
    12    13    14    2
    13    14    15    1
    14    15     1    1
    15     1     2    1
    16     2    24    1
    17    24    26    1
    18    26    27    1
    19    27    28    1
    20    27    30    1
    21    30    31   ar
    22    31    32   ar
    23    32    33   ar
    24    33    34   ar
    25    34    35    1
    26    34    36   ar
    27     2     3    2
    28     3     4    1
    29     4     5    2
    30     5     6    1
    31     6     7    2
    32    15    16    2
    33    16    17    1
    34    17     9    1
    35    22    18    1
    36    17    13    1
    37     6     1    1
    38    36    30   ar
    39    24    25    1
    40    28    29    1
