@<TRIPOS>MOLECULE
*****
 27 30 0 0 0
SMALL
GASTEIGER

@<TRIPOS>ATOM
      1 C          59.3358   88.9865    7.0306 C.3     1  UNL1        0.0523
      2 C          60.0593   88.5976    8.2857 C.ar    1  UNL1        0.0653
      3 C          60.3045   89.6186    9.3570 C.ar    1  UNL1        0.0490
      4 C          61.0280   89.2298   10.6121 C.ar    1  UNL1        0.1342
      5 N          61.5063   87.8199   10.7959 N.ar    1  UNL1       -0.1816
      6 N          62.2420   87.1479   11.9171 N.ar    1  UNL1       -0.1409
      7 C          62.4514   85.7115   11.5388 C.ar    1  UNL1        0.2227
      8 N          61.8451   85.4960   10.1838 N.ar    1  UNL1       -0.1880
      9 C          61.2610   86.7990    9.7247 C.ar    1  UNL1        0.2552
     10 N          60.5375   87.1879    8.4696 N.ar    1  UNL1       -0.2142
     11 C          63.1452   84.6731   12.3696 C.3     1  UNL1        0.3163
     12 C          63.8390   83.6346   13.2004 C.3     1  UNL1        0.0805
     13 F          63.8345   85.7552   13.1467 F       1  UNL1       -0.1962
     14 F          62.4560   83.5909   11.5926 F       1  UNL1       -0.1962
     15 N          61.2733   90.2506   11.6833 N.pl3   1  UNL1       -0.3192
     16 H          60.5239   90.5802   12.2301 H       1  UNL1        0.1482
     17 C          62.6605   90.7695   11.9215 C.3     1  UNL1        0.0750
     18 C          63.4074   91.4497   10.8128 C.3     1  UNL1        0.0245
     19 C          64.7945   91.9685   11.0510 C.3     1  UNL1        0.0278
     20 C          65.4346   91.8071   12.3979 C.ar    1  UNL1       -0.0252
     21 C          66.8218   92.3259   12.6361 C.ar    1  UNL1        0.0068
     22 C          67.4619   92.1645   13.9830 C.ar    1  UNL1        0.0573
     23 CL         68.8490   92.6833   14.2212 Cl      1  UNL1       -0.0823
     24 C          66.7149   91.4843   15.0917 C.ar    1  UNL1        0.0111
     25 C          65.3278   90.9655   14.8535 C.ar    1  UNL1       -0.0037
     26 C          64.6877   91.1269   13.5066 C.ar    1  UNL1       -0.0244
     27 C          63.3006   90.6081   13.2684 C.3     1  UNL1        0.0455
@<TRIPOS>BOND
     1     1     2    1
     2     2     3   ar
     3     3     4   ar
     4     4    15    1
     5    15    17    1
     6    17    18    1
     7    18    19    1
     8    19    20    1
     9    20    21   ar
    10    21    22   ar
    11    22    23    1
    12    22    24   ar
    13    24    25   ar
    14    25    26   ar
    15    26    27    1
    16     4     5   ar
    17     5     6   ar
    18     6     7   ar
    19     7    11    1
    20    11    12    1
    21    11    13    1
    22    11    14    1
    23     7     8   ar
    24     8     9   ar
    25     9    10   ar
    26    10     2   ar
    27    27    17    1
    28     9     5   ar
    29    26    20   ar
    30    15    16    1
@<TRIPOS>MOLECULE
*****
 27 30 0 0 0
SMALL
GASTEIGER

@<TRIPOS>ATOM
      1 C          62.4826   84.8863    6.6284 C.3     1  UNL1        0.0523
      2 C          62.5269   85.1501    8.1044 C.ar    1  UNL1        0.0653
      3 C          61.9564   86.4230    8.6562 C.ar    1  UNL1        0.0490
      4 C          62.0008   86.6868   10.1321 C.ar    1  UNL1        0.1342
      5 N          62.6156   85.6778   11.0562 N.ar    1  UNL1       -0.1816
      6 N          62.8012   85.6621   12.5446 N.ar    1  UNL1       -0.1409
      7 C          63.4865   84.3795   12.9126 C.ar    1  UNL1        0.2227
      8 N          63.7243   83.6026   11.6517 N.ar    1  UNL1       -0.1880
      9 C          63.1861   84.4050   10.5044 C.ar    1  UNL1        0.2552
     10 N          63.1417   84.1412    9.0285 N.ar    1  UNL1       -0.2142
     11 C          63.8670   83.9493   14.2984 C.3     1  UNL1        0.3163
     12 C          64.2476   83.5192   15.6840 C.3     1  UNL1        0.0805
     13 F          62.5197   83.3129   14.4709 F       1  UNL1       -0.1962
     14 F          65.2143   84.5856   14.1259 F       1  UNL1       -0.1962
     15 N          61.4303   87.9596   10.6839 N.pl3   1  UNL1       -0.3192
     16 H          60.4564   88.0570   10.7905 H       1  UNL1        0.1482
     17 C          62.3436   89.0840   11.0735 C.3     1  UNL1        0.0750
     18 C          62.5595   90.2342   10.1353 C.3     1  UNL1        0.0245
     19 C          63.4728   91.3585   10.5248 C.3     1  UNL1        0.0278
     20 C          64.1702   91.3326   11.8526 C.ar    1  UNL1       -0.0252
     21 C          65.0835   92.4570   12.2421 C.ar    1  UNL1        0.0068
     22 C          65.7809   92.4311   13.5698 C.ar    1  UNL1        0.0573
     23 CL         66.6942   93.5554   13.9594 Cl      1  UNL1       -0.0823
     24 C          65.5650   91.2807   14.5081 C.ar    1  UNL1        0.0111
     25 C          64.6517   90.1564   14.1185 C.ar    1  UNL1       -0.0037
     26 C          63.9543   90.1824   12.7908 C.ar    1  UNL1       -0.0244
     27 C          63.0410   89.0581   12.4012 C.3     1  UNL1        0.0455
@<TRIPOS>BOND
     1     1     2    1
     2     2     3   ar
     3     3     4   ar
     4     4    15    1
     5    15    17    1
     6    17    18    1
     7    18    19    1
     8    19    20    1
     9    20    21   ar
    10    21    22   ar
    11    22    23    1
    12    22    24   ar
    13    24    25   ar
    14    25    26   ar
    15    26    27    1
    16     4     5   ar
    17     5     6   ar
    18     6     7   ar
    19     7    11    1
    20    11    12    1
    21    11    13    1
    22    11    14    1
    23     7     8   ar
    24     8     9   ar
    25     9    10   ar
    26    10     2   ar
    27    27    17    1
    28     9     5   ar
    29    26    20   ar
    30    15    16    1
@<TRIPOS>MOLECULE
*****
 27 30 0 0 0
SMALL
GASTEIGER

@<TRIPOS>ATOM
      1 C          62.3240   79.3581   13.4206 C.3     1  UNL1        0.0523
      2 C          62.6526   80.8160   13.5495 C.ar    1  UNL1        0.0653
      3 C          63.2757   81.5490   12.3985 C.ar    1  UNL1        0.0490
      4 C          63.6043   83.0069   12.5274 C.ar    1  UNL1        0.1342
      5 N          63.3098   83.7318   13.8072 N.ar    1  UNL1       -0.1816
      6 N          63.5211   85.1568   14.2249 N.ar    1  UNL1       -0.1409
      7 C          63.0286   85.3046   15.6341 C.ar    1  UNL1        0.2227
      8 N          62.5130   83.9709   16.0871 N.ar    1  UNL1       -0.1880
      9 C          62.6868   82.9988   14.9581 C.ar    1  UNL1        0.2552
     10 N          62.3582   81.5409   14.8292 N.ar    1  UNL1       -0.2142
     11 C          63.0484   86.5649   16.4473 C.3     1  UNL1        0.3163
     12 C          63.0681   87.8251   17.2606 C.3     1  UNL1        0.0805
     13 F          64.1214   87.1213   15.5591 F       1  UNL1       -0.1962
     14 F          61.9754   86.0085   17.3356 F       1  UNL1       -0.1962
     15 N          64.2273   83.7398   11.3765 N.pl3   1  UNL1       -0.3192
     16 H          65.2009   83.6989   11.2360 H       1  UNL1        0.1482
     17 C          63.3671   84.5351   10.4397 C.3     1  UNL1        0.0750
     18 C          63.4734   84.3206    8.9590 C.3     1  UNL1        0.0245
     19 C          62.6132   85.1159    8.0223 C.3     1  UNL1        0.0278
     20 C          61.6465   86.1256    8.5663 C.ar    1  UNL1       -0.0252
     21 C          60.7862   86.9209    7.6296 C.ar    1  UNL1        0.0068
     22 C          59.8196   87.9307    8.1736 C.ar    1  UNL1        0.0573
     23 CL         58.9593   88.7260    7.2369 Cl      1  UNL1       -0.0823
     24 C          59.7133   88.1452    9.6544 C.ar    1  UNL1        0.0111
     25 C          60.5735   87.3499   10.5911 C.ar    1  UNL1       -0.0037
     26 C          61.5402   86.3401   10.0471 C.ar    1  UNL1       -0.0244
     27 C          62.4004   85.5449   10.9838 C.3     1  UNL1        0.0455
@<TRIPOS>BOND
     1     1     2    1
     2     2     3   ar
     3     3     4   ar
     4     4    15    1
     5    15    17    1
     6    17    18    1
     7    18    19    1
     8    19    20    1
     9    20    21   ar
    10    21    22   ar
    11    22    23    1
    12    22    24   ar
    13    24    25   ar
    14    25    26   ar
    15    26    27    1
    16     4     5   ar
    17     5     6   ar
    18     6     7   ar
    19     7    11    1
    20    11    12    1
    21    11    13    1
    22    11    14    1
    23     7     8   ar
    24     8     9   ar
    25     9    10   ar
    26    10     2   ar
    27    27    17    1
    28     9     5   ar
    29    26    20   ar
    30    15    16    1
@<TRIPOS>MOLECULE
*****
 27 30 0 0 0
SMALL
GASTEIGER

@<TRIPOS>ATOM
      1 C          63.5927   90.4945   16.4270 C.3     1  UNL1        0.0523
      2 C          63.8959   90.8432   15.0000 C.ar    1  UNL1        0.0653
      3 C          63.1128   90.2072   13.8898 C.ar    1  UNL1        0.0490
      4 C          63.4161   90.5560   12.4628 C.ar    1  UNL1        0.1342
      5 N          64.5023   91.5407   12.1459 N.ar    1  UNL1       -0.1816
      6 N          65.0233   92.0763   10.8453 N.ar    1  UNL1       -0.1409
      7 C          66.1283   93.0434   11.1516 C.ar    1  UNL1        0.2227
      8 N          66.2902   93.1054   12.6415 N.ar    1  UNL1       -0.1880
      9 C          65.2853   92.1767   13.2560 C.ar    1  UNL1        0.2552
     10 N          64.9821   91.8279   14.6831 N.ar    1  UNL1       -0.2142
     11 C          66.9305   93.8133   10.1446 C.3     1  UNL1        0.3163
     12 C          67.7326   94.5831    9.1378 C.3     1  UNL1        0.0805
     13 F          67.4882   92.5289    9.6069 F       1  UNL1       -0.1962
     14 F          66.3728   95.0976   10.6824 F       1  UNL1       -0.1962
     15 N          62.6331   89.9200   11.3527 N.pl3   1  UNL1       -0.3192
     16 H          62.1647   90.4835   10.6951 H       1  UNL1        0.1482
     17 C          62.5636   88.4255   11.2444 C.3     1  UNL1        0.0750
     18 C          61.9486   87.7890   10.0333 C.3     1  UNL1        0.0245
     19 C          61.8792   86.2946    9.9251 C.3     1  UNL1        0.0278
     20 C          62.4248   85.4366   11.0279 C.ar    1  UNL1       -0.0252
     21 C          62.3553   83.9421   10.9196 C.ar    1  UNL1        0.0068
     22 C          62.9009   83.0841   12.0224 C.ar    1  UNL1        0.0573
     23 CL         62.8315   81.5896   11.9142 Cl      1  UNL1       -0.0823
     24 C          63.5159   83.7206   13.2335 C.ar    1  UNL1        0.0111
     25 C          63.5853   85.2150   13.3417 C.ar    1  UNL1       -0.0037
     26 C          63.0398   86.0730   12.2389 C.ar    1  UNL1       -0.0244
     27 C          63.1092   87.5675   12.3472 C.3     1  UNL1        0.0455
@<TRIPOS>BOND
     1     1     2    1
     2     2     3   ar
     3     3     4   ar
     4     4    15    1
     5    15    17    1
     6    17    18    1
     7    18    19    1
     8    19    20    1
     9    20    21   ar
    10    21    22   ar
    11    22    23    1
    12    22    24   ar
    13    24    25   ar
    14    25    26   ar
    15    26    27    1
    16     4     5   ar
    17     5     6   ar
    18     6     7   ar
    19     7    11    1
    20    11    12    1
    21    11    13    1
    22    11    14    1
    23     7     8   ar
    24     8     9   ar
    25     9    10   ar
    26    10     2   ar
    27    27    17    1
    28     9     5   ar
    29    26    20   ar
    30    15    16    1
@<TRIPOS>MOLECULE
*****
 27 30 0 0 0
SMALL
GASTEIGER

@<TRIPOS>ATOM
      1 C          66.0288   92.9439   10.4083 C.3     1  UNL1        0.0523
      2 C          65.1141   92.1171   11.2626 C.ar    1  UNL1        0.0653
      3 C          63.7263   91.8017   10.7884 C.ar    1  UNL1        0.0490
      4 C          62.8117   90.9749   11.6426 C.ar    1  UNL1        0.1342
      5 N          63.2847   90.4635   12.9711 N.ar    1  UNL1       -0.1816
      6 N          62.6133   89.6313   14.0230 N.ar    1  UNL1       -0.1409
      7 C          63.5861   89.4324   15.1474 C.ar    1  UNL1        0.2227
      8 N          64.8587   90.1416   14.7903 N.ar    1  UNL1       -0.1880
      9 C          64.6724   90.7790   13.4453 C.ar    1  UNL1        0.2552
     10 N          65.5871   91.6057   12.5910 N.ar    1  UNL1       -0.2142
     11 C          63.3311   88.6598   16.4076 C.3     1  UNL1        0.3163
     12 C          63.0761   87.8872   17.6678 C.3     1  UNL1        0.0805
     13 F          63.7469   87.3951   15.7165 F       1  UNL1       -0.1962
     14 F          62.9153   89.9244   17.0987 F       1  UNL1       -0.1962
     15 N          61.4240   90.6595   11.1685 N.pl3   1  UNL1       -0.3192
     16 H          60.6597   91.1849   11.4987 H       1  UNL1        0.1482
     17 C          61.2008   89.5437   10.1911 C.3     1  UNL1        0.0750
     18 C          59.9719   89.5344    9.3312 C.3     1  UNL1        0.0245
     19 C          59.7488   88.4186    8.3539 C.3     1  UNL1        0.0278
     20 C          60.7546   87.3121    8.2366 C.ar    1  UNL1       -0.0252
     21 C          60.5314   86.1962    7.2592 C.ar    1  UNL1        0.0068
     22 C          61.5373   85.0896    7.1419 C.ar    1  UNL1        0.0573
     23 CL         61.3142   83.9738    6.1646 Cl      1  UNL1       -0.0823
     24 C          62.7663   85.0989    8.0019 C.ar    1  UNL1        0.0111
     25 C          62.9894   86.2147    8.9792 C.ar    1  UNL1       -0.0037
     26 C          61.9836   87.3213    9.0965 C.ar    1  UNL1       -0.0244
     27 C          62.2067   88.4371   10.0738 C.3     1  UNL1        0.0455
@<TRIPOS>BOND
     1     1     2    1
     2     2     3   ar
     3     3     4   ar
     4     4    15    1
     5    15    17    1
     6    17    18    1
     7    18    19    1
     8    19    20    1
     9    20    21   ar
    10    21    22   ar
    11    22    23    1
    12    22    24   ar
    13    24    25   ar
    14    25    26   ar
    15    26    27    1
    16     4     5   ar
    17     5     6   ar
    18     6     7   ar
    19     7    11    1
    20    11    12    1
    21    11    13    1
    22    11    14    1
    23     7     8   ar
    24     8     9   ar
    25     9    10   ar
    26    10     2   ar
    27    27    17    1
    28     9     5   ar
    29    26    20   ar
    30    15    16    1
@<TRIPOS>MOLECULE
*****
 27 30 0 0 0
SMALL
GASTEIGER

@<TRIPOS>ATOM
      1 C          62.0609   89.7957   10.4079 C.3     1  UNL1        0.0523
      2 C          62.9935   90.0212   11.5610 C.ar    1  UNL1        0.0653
      3 C          63.0961   88.9986   12.6537 C.ar    1  UNL1        0.0490
      4 C          64.0286   89.2241   13.8067 C.ar    1  UNL1        0.1342
      5 N          64.8585   90.4722   13.8671 N.ar    1  UNL1       -0.1816
      6 N          65.8580   90.9653   14.8710 N.ar    1  UNL1       -0.1409
      7 C          66.3731   92.2926   14.3988 C.ar    1  UNL1        0.2227
      8 N          65.6919   92.6198   13.1031 N.ar    1  UNL1       -0.1880
      9 C          64.7559   91.4947   12.7744 C.ar    1  UNL1        0.2552
     10 N          63.8234   91.2692   11.6214 N.ar    1  UNL1       -0.2142
     11 C          67.3906   93.1434   15.0994 C.3     1  UNL1        0.3163
     12 C          68.4082   93.9940   15.8000 C.3     1  UNL1        0.0805
     13 F          66.8011   94.3692   14.4672 F       1  UNL1       -0.1962
     14 F          67.9802   91.9175   15.7316 F       1  UNL1       -0.1962
     15 N          64.1313   88.2016   14.8993 N.pl3   1  UNL1       -0.3192
     16 H          64.3173   88.4857   15.8234 H       1  UNL1        0.1482
     17 C          63.9505   86.7463   14.5840 C.3     1  UNL1        0.0750
     18 C          64.1803   85.7142   15.6480 C.3     1  UNL1        0.0245
     19 C          63.9995   84.2589   15.3326 C.3     1  UNL1        0.0278
     20 C          63.5889   83.8357   13.9534 C.ar    1  UNL1       -0.0252
     21 C          63.4081   82.3804   13.6381 C.ar    1  UNL1        0.0068
     22 C          62.9975   81.9572   12.2588 C.ar    1  UNL1        0.0573
     23 CL         62.8167   80.5019   11.9435 Cl      1  UNL1       -0.0823
     24 C          62.7677   82.9894   11.1949 C.ar    1  UNL1        0.0111
     25 C          62.9485   84.4446   11.5102 C.ar    1  UNL1       -0.0037
     26 C          63.3591   84.8678   12.8895 C.ar    1  UNL1       -0.0244
     27 C          63.5399   86.3231   13.2048 C.3     1  UNL1        0.0455
@<TRIPOS>BOND
     1     1     2    1
     2     2     3   ar
     3     3     4   ar
     4     4    15    1
     5    15    17    1
     6    17    18    1
     7    18    19    1
     8    19    20    1
     9    20    21   ar
    10    21    22   ar
    11    22    23    1
    12    22    24   ar
    13    24    25   ar
    14    25    26   ar
    15    26    27    1
    16     4     5   ar
    17     5     6   ar
    18     6     7   ar
    19     7    11    1
    20    11    12    1
    21    11    13    1
    22    11    14    1
    23     7     8   ar
    24     8     9   ar
    25     9    10   ar
    26    10     2   ar
    27    27    17    1
    28     9     5   ar
    29    26    20   ar
    30    15    16    1
@<TRIPOS>MOLECULE
*****
 27 30 0 0 0
SMALL
GASTEIGER

@<TRIPOS>ATOM
      1 C          63.5729   89.0784   15.9229 C.3     1  UNL1        0.0523
      2 C          63.7254   89.8355   14.6370 C.ar    1  UNL1        0.0653
      3 C          62.5699   89.9390   13.6860 C.ar    1  UNL1        0.0490
      4 C          62.7224   90.6961   12.4001 C.ar    1  UNL1        0.1342
      5 N          64.0303   91.3498   12.0652 N.ar    1  UNL1       -0.1816
      6 N          64.4751   92.1564   10.8814 N.ar    1  UNL1       -0.1409
      7 C          65.9054   92.5514   11.1007 C.ar    1  UNL1        0.2227
      8 N          66.3446   91.9889   12.4200 N.ar    1  UNL1       -0.1880
      9 C          65.1857   91.2463   13.0162 C.ar    1  UNL1        0.2552
     10 N          65.0332   90.4891   14.3020 N.ar    1  UNL1       -0.2142
     11 C          66.7485   93.3660   10.1648 C.3     1  UNL1        0.3163
     12 C          67.5916   94.1805    9.2291 C.3     1  UNL1        0.0805
     13 F          67.5862   92.1577    9.8678 F       1  UNL1       -0.1962
     14 F          65.9109   94.5743   10.4619 F       1  UNL1       -0.1962
     15 N          61.5670   90.7996   11.4492 N.pl3   1  UNL1       -0.3192
     16 H          60.9880   91.5957   11.4629 H       1  UNL1        0.1482
     17 C          61.2937   89.6901   10.4774 C.3     1  UNL1        0.0750
     18 C          60.0121   89.6742    9.6983 C.3     1  UNL1        0.0245
     19 C          59.7389   88.5647    8.7265 C.3     1  UNL1        0.0278
     20 C          60.7473   87.4711    8.5339 C.ar    1  UNL1       -0.0252
     21 C          60.4740   86.3615    7.5621 C.ar    1  UNL1        0.0068
     22 C          61.4825   85.2679    7.3695 C.ar    1  UNL1        0.0573
     23 CL         61.2092   84.1584    6.3977 Cl      1  UNL1       -0.0823
     24 C          62.7642   85.2839    8.1487 C.ar    1  UNL1        0.0111
     25 C          63.0374   86.3934    9.1204 C.ar    1  UNL1       -0.0037
     26 C          62.0289   87.4870    9.3130 C.ar    1  UNL1       -0.0244
     27 C          62.3021   88.5965   10.2848 C.3     1  UNL1        0.0455
@<TRIPOS>BOND
     1     1     2    1
     2     2     3   ar
     3     3     4   ar
     4     4    15    1
     5    15    17    1
     6    17    18    1
     7    18    19    1
     8    19    20    1
     9    20    21   ar
    10    21    22   ar
    11    22    23    1
    12    22    24   ar
    13    24    25   ar
    14    25    26   ar
    15    26    27    1
    16     4     5   ar
    17     5     6   ar
    18     6     7   ar
    19     7    11    1
    20    11    12    1
    21    11    13    1
    22    11    14    1
    23     7     8   ar
    24     8     9   ar
    25     9    10   ar
    26    10     2   ar
    27    27    17    1
    28     9     5   ar
    29    26    20   ar
    30    15    16    1
@<TRIPOS>MOLECULE
*****
 27 30 0 0 0
SMALL
GASTEIGER

@<TRIPOS>ATOM
      1 C          62.6889   87.0663   18.5801 C.3     1  UNL1        0.0523
      2 C          62.9128   86.4343   17.2383 C.ar    1  UNL1        0.0653
      3 C          63.4527   87.2540   16.1040 C.ar    1  UNL1        0.0490
      4 C          63.6766   86.6221   14.7621 C.ar    1  UNL1        0.1342
      5 N          63.3606   85.1704   14.5546 N.ar    1  UNL1       -0.1816
      6 N          63.4769   84.2798   13.3534 N.ar    1  UNL1       -0.1409
      7 C          63.0088   82.9096   13.7453 C.ar    1  UNL1        0.2227
      8 N          62.6033   82.9535   15.1888 N.ar    1  UNL1       -0.1880
      9 C          62.8207   84.3508   15.6890 C.ar    1  UNL1        0.2552
     10 N          62.5968   84.9828   17.0308 N.ar    1  UNL1       -0.2142
     11 C          62.9557   81.7066   12.8507 C.3     1  UNL1        0.3163
     12 C          62.9025   80.5038   11.9562 C.3     1  UNL1        0.0805
     13 F          63.7921   80.9400   13.8319 F       1  UNL1       -0.1962
     14 F          62.1193   82.4732   11.8696 F       1  UNL1       -0.1962
     15 N          64.2164   87.4417   13.6278 N.pl3   1  UNL1       -0.3192
     16 H          65.1689   87.6902   13.6097 H       1  UNL1        0.1482
     17 C          63.3051   87.8827   12.5209 C.3     1  UNL1        0.0750
     18 C          63.0326   89.3427   12.3105 C.3     1  UNL1        0.0245
     19 C          62.1213   89.7836   11.2037 C.3     1  UNL1        0.0278
     20 C          61.4825   88.7646   10.3073 C.ar    1  UNL1       -0.0252
     21 C          60.5712   89.2056    9.2004 C.ar    1  UNL1        0.0068
     22 C          59.9324   88.1867    8.3040 C.ar    1  UNL1        0.0573
     23 CL         59.0212   88.6276    7.1972 Cl      1  UNL1       -0.0823
     24 C          60.2050   86.7267    8.5144 C.ar    1  UNL1        0.0111
     25 C          61.1162   86.2857    9.6212 C.ar    1  UNL1       -0.0037
     26 C          61.7550   87.3047   10.5177 C.ar    1  UNL1       -0.0244
     27 C          62.6663   86.8637   11.6245 C.3     1  UNL1        0.0455
@<TRIPOS>BOND
     1     1     2    1
     2     2     3   ar
     3     3     4   ar
     4     4    15    1
     5    15    17    1
     6    17    18    1
     7    18    19    1
     8    19    20    1
     9    20    21   ar
    10    21    22   ar
    11    22    23    1
    12    22    24   ar
    13    24    25   ar
    14    25    26   ar
    15    26    27    1
    16     4     5   ar
    17     5     6   ar
    18     6     7   ar
    19     7    11    1
    20    11    12    1
    21    11    13    1
    22    11    14    1
    23     7     8   ar
    24     8     9   ar
    25     9    10   ar
    26    10     2   ar
    27    27    17    1
    28     9     5   ar
    29    26    20   ar
    30    15    16    1
@<TRIPOS>MOLECULE
*****
 27 30 0 0 0
SMALL
GASTEIGER

@<TRIPOS>ATOM
      1 C          64.7766   92.1662   17.1364 C.3     1  UNL1        0.0523
      2 C          64.9108   92.0706   15.6455 C.ar    1  UNL1        0.0653
      3 C          64.1236   91.0442   14.8859 C.ar    1  UNL1        0.0490
      4 C          64.2578   90.9486   13.3950 C.ar    1  UNL1        0.1342
      5 N          65.1793   91.8793   12.6637 N.ar    1  UNL1       -0.1816
      6 N          65.5156   92.0206   11.2087 N.ar    1  UNL1       -0.1409
      7 C          66.5107   93.1343   11.0691 C.ar    1  UNL1        0.2227
      8 N          66.7893   93.6812   12.4378 N.ar    1  UNL1       -0.1880
      9 C          65.9665   92.9056   13.4233 C.ar    1  UNL1        0.2552
     10 N          65.8322   93.0012   14.9142 N.ar    1  UNL1       -0.2142
     11 C          67.1202   93.6164    9.7861 C.3     1  UNL1        0.3163
     12 C          67.7296   94.0986    8.5031 C.3     1  UNL1        0.0805
     13 F          68.1086   92.4891    9.8319 F       1  UNL1       -0.1962
     14 F          66.1318   94.7438    9.7402 F       1  UNL1       -0.1962
     15 N          63.4707   89.9223   12.6354 N.pl3   1  UNL1       -0.3192
     16 H          62.8749   90.2018   11.9031 H       1  UNL1        0.1482
     17 C          63.5912   88.4701   12.9914 C.3     1  UNL1        0.0750
     18 C          64.3188   88.0614   14.2378 C.3     1  UNL1        0.0245
     19 C          64.4393   86.6092   14.5938 C.3     1  UNL1        0.0278
     20 C          63.8321   85.5659   13.7034 C.ar    1  UNL1       -0.0252
     21 C          63.9526   84.1137   14.0595 C.ar    1  UNL1        0.0068
     22 C          63.3455   83.0703   13.1692 C.ar    1  UNL1        0.0573
     23 CL         63.4660   81.6182   13.5252 Cl      1  UNL1       -0.0823
     24 C          62.6178   83.4791   11.9228 C.ar    1  UNL1        0.0111
     25 C          62.4973   84.9312   11.5668 C.ar    1  UNL1       -0.0037
     26 C          63.1045   85.9746   12.4571 C.ar    1  UNL1       -0.0244
     27 C          62.9840   87.4267   12.1011 C.3     1  UNL1        0.0455
@<TRIPOS>BOND
     1     1     2    1
     2     2     3   ar
     3     3     4   ar
     4     4    15    1
     5    15    17    1
     6    17    18    1
     7    18    19    1
     8    19    20    1
     9    20    21   ar
    10    21    22   ar
    11    22    23    1
    12    22    24   ar
    13    24    25   ar
    14    25    26   ar
    15    26    27    1
    16     4     5   ar
    17     5     6   ar
    18     6     7   ar
    19     7    11    1
    20    11    12    1
    21    11    13    1
    22    11    14    1
    23     7     8   ar
    24     8     9   ar
    25     9    10   ar
    26    10     2   ar
    27    27    17    1
    28     9     5   ar
    29    26    20   ar
    30    15    16    1
