@<TRIPOS>MOLECULE
*****
 36 38 0 0 0
SMALL
GASTEIGER

@<TRIPOS>ATOM
      1 C          63.0623   90.6034   11.5227 C.ar    1  UNL1       -0.0078
      2 C          63.2881   91.4823   10.3283 C.ar    1  UNL1       -0.0033
      3 C          64.4981   92.3666   10.2659 C.ar    1  UNL1       -0.0042
      4 C          65.4824   92.3719   11.3978 C.ar    1  UNL1       -0.0166
      5 C          65.2566   91.4930   12.5921 C.ar    1  UNL1       -0.0042
      6 C          64.0466   90.6087   12.6546 C.ar    1  UNL1       -0.0030
      7 C          63.8208   89.7297   13.8490 C.ar    1  UNL1       -0.0003
      8 C          63.2914   90.3176   15.1234 C.ar    1  UNL1       -0.0001
      9 C          63.0656   89.4387   16.3177 C.ar    1  UNL1        0.0039
     10 C          63.3692   87.9719   16.2377 C.ar    1  UNL1        0.0714
     11 C          63.8987   87.3840   14.9633 C.ar    1  UNL1        0.0039
     12 C          64.1245   88.2630   13.7689 C.ar    1  UNL1       -0.0001
     13 C          63.1434   87.0930   17.4320 C.3     1  UNL1        0.4186
     14 F          62.9177   86.2141   18.6264 F       1  UNL1       -0.1659
     15 F          63.1318   88.3021   18.3196 F       1  UNL1       -0.1659
     16 F          63.1551   85.8838   16.5445 F       1  UNL1       -0.1659
     17 C          61.8523   89.7191   11.5852 C.3     1  UNL1        0.0801
     18 N          61.6524   88.6475   10.5547 N.3     1  UNL1       -0.2703
     19 C          60.8041   88.9169    9.3474 C.3     1  UNL1        0.0726
     20 C          60.6043   87.8453    8.3170 C.3     1  UNL1        0.0259
     21 C          61.2528   86.5044    8.4939 C.3     1  UNL1        0.0979
     22 C          62.1012   86.2350    9.7013 C.3     1  UNL1        0.0259
     23 C          62.3010   87.3066   10.7317 C.3     1  UNL1        0.0726
     24 C          61.0529   85.4328    7.4634 C.3     1  UNL1        0.3976
     25 F          60.8531   84.3612    6.4330 F       1  UNL1       -0.1701
     26 F          59.5813   85.7227    7.4474 F       1  UNL1       -0.1701
     27 F          62.5246   85.1430    7.4795 F       1  UNL1       -0.1701
     28 C          60.8421   89.9064   12.6781 C.3     1  UNL1        0.0205
     29 C          59.3568   90.8554   11.4977 C.3     1  UNL1        0.0001
     30 C          59.3876   89.6614   12.4051 C.3     1  UNL1        0.0016
     31 C          59.4184   88.4675   13.3125 C.3     1  UNL1        0.0001
     32 C          57.9332   89.4165   12.1321 C.3     1  UNL1        0.0001
     33 C          66.6924   93.2562   11.3353 C.3     1  UNL1        0.0679
     34 C          67.6356   93.1556   10.1733 C.2     1  UNL1        0.0547
     35 O          68.1640   94.4014    9.5262 O.co2   1  UNL1       -0.5488
     36 O          68.0505   91.8092    9.6584 O.co2   1  UNL1       -0.5488
@<TRIPOS>UNITY_ATOM_ATTR
35 1
charge -1
@<TRIPOS>BOND
     1    29    30    1
     2    30    31    1
     3    30    32    1
     4    30    28    1
     5    28    17    1
     6    17     1    1
     7     1     2   ar
     8     2     3   ar
     9     3     4   ar
    10     4    33    1
    11    33    34    1
    12    34    35   ar
    13    34    36   ar
    14     4     5   ar
    15     5     6   ar
    16     6     7    1
    17     7     8   ar
    18     8     9   ar
    19     9    10   ar
    20    10    13    1
    21    13    14    1
    22    13    15    1
    23    13    16    1
    24    10    11   ar
    25    11    12   ar
    26    17    18    1
    27    18    19    1
    28    19    20    1
    29    20    21    1
    30    21    24    1
    31    24    25    1
    32    24    26    1
    33    24    27    1
    34    21    22    1
    35    22    23    1
    36     6     1   ar
    37    12     7   ar
    38    23    18    1
@<TRIPOS>MOLECULE
*****
 36 38 0 0 0
SMALL
GASTEIGER

@<TRIPOS>ATOM
      1 C          60.7796   94.3517   -3.9184 C.ar    1  UNL1       -0.0078
      2 C          61.1233   94.6423   -5.3492 C.ar    1  UNL1       -0.0033
      3 C          62.5363   94.4863   -5.8277 C.ar    1  UNL1       -0.0042
      4 C          63.6057   94.0398   -4.8753 C.ar    1  UNL1       -0.0166
      5 C          63.2620   93.7493   -3.4444 C.ar    1  UNL1       -0.0042
      6 C          61.8490   93.9053   -2.9659 C.ar    1  UNL1       -0.0030
      7 C          61.5053   93.6147   -1.5350 C.ar    1  UNL1       -0.0003
      8 C          60.8207   92.3298   -1.1741 C.ar    1  UNL1       -0.0001
      9 C          60.4769   92.0392    0.2567 C.ar    1  UNL1        0.0039
     10 C          60.8178   93.0337    1.3268 C.ar    1  UNL1        0.0714
     11 C          61.5025   94.3186    0.9659 C.ar    1  UNL1        0.0039
     12 C          61.8462   94.6091   -0.4650 C.ar    1  UNL1       -0.0001
     13 C          60.4741   92.7431    2.7577 C.3     1  UNL1        0.4186
     14 F          60.1304   92.4526    4.1885 F       1  UNL1       -0.1659
     15 F          61.9330   92.6167    3.0824 F       1  UNL1       -0.1659
     16 F          59.0152   92.8696    2.4329 F       1  UNL1       -0.1659
     17 C          59.3665   94.5077   -3.4398 C.3     1  UNL1        0.0801
     18 N          58.2903   93.6099   -3.9743 N.3     1  UNL1       -0.2703
     19 C          57.5477   93.9893   -5.2211 C.3     1  UNL1        0.0726
     20 C          56.4715   93.0915   -5.7556 C.3     1  UNL1        0.0259
     21 C          56.1379   91.8143   -5.0434 C.3     1  UNL1        0.0979
     22 C          56.8805   91.4348   -3.7965 C.3     1  UNL1        0.0259
     23 C          57.9567   92.3326   -3.2620 C.3     1  UNL1        0.0726
     24 C          55.0617   90.9165   -5.5779 C.3     1  UNL1        0.3976
     25 F          53.9854   90.0187   -6.1124 F       1  UNL1       -0.1701
     26 F          55.1336   91.6184   -6.9016 F       1  UNL1       -0.1701
     27 F          54.9898   90.2146   -4.2542 F       1  UNL1       -0.1701
     28 C          59.0297   95.5614   -2.4268 C.3     1  UNL1        0.0205
     29 C          58.0151   94.7525   -0.7486 C.3     1  UNL1        0.0001
     30 C          57.6357   95.6593   -1.8816 C.3     1  UNL1        0.0016
     31 C          57.2563   96.5661   -3.0146 C.3     1  UNL1        0.0001
     32 C          56.2418   95.7572   -1.3364 C.3     1  UNL1        0.0001
     33 C          65.0188   93.8839   -5.3538 C.3     1  UNL1        0.0679
     34 C          65.3787   92.7556   -6.2744 C.2     1  UNL1        0.0547
     35 O          66.5921   92.8600   -7.1500 O.co2   1  UNL1       -0.5488
     36 O          64.5251   91.5229   -6.3193 O.co2   1  UNL1       -0.5488
@<TRIPOS>UNITY_ATOM_ATTR
35 1
charge -1
@<TRIPOS>BOND
     1    29    30    1
     2    30    31    1
     3    30    32    1
     4    30    28    1
     5    28    17    1
     6    17     1    1
     7     1     2   ar
     8     2     3   ar
     9     3     4   ar
    10     4    33    1
    11    33    34    1
    12    34    35   ar
    13    34    36   ar
    14     4     5   ar
    15     5     6   ar
    16     6     7    1
    17     7     8   ar
    18     8     9   ar
    19     9    10   ar
    20    10    13    1
    21    13    14    1
    22    13    15    1
    23    13    16    1
    24    10    11   ar
    25    11    12   ar
    26    17    18    1
    27    18    19    1
    28    19    20    1
    29    20    21    1
    30    21    24    1
    31    24    25    1
    32    24    26    1
    33    24    27    1
    34    21    22    1
    35    22    23    1
    36     6     1   ar
    37    12     7   ar
    38    23    18    1
@<TRIPOS>MOLECULE
*****
 36 38 0 0 0
SMALL
GASTEIGER

@<TRIPOS>ATOM
      1 C          60.1151   94.0070   -0.3145 C.ar    1  UNL1       -0.0078
      2 C          59.7136   93.5072    1.0415 C.ar    1  UNL1       -0.0033
      3 C          60.7605   93.0396    2.0087 C.ar    1  UNL1       -0.0042
      4 C          62.2088   93.0718    1.6197 C.ar    1  UNL1       -0.0166
      5 C          62.6103   93.5717    0.2636 C.ar    1  UNL1       -0.0042
      6 C          61.5634   94.0392   -0.7035 C.ar    1  UNL1       -0.0030
      7 C          61.9648   94.5391   -2.0596 C.ar    1  UNL1       -0.0003
      8 C          61.9281   93.6150   -3.2407 C.ar    1  UNL1       -0.0001
      9 C          62.3295   94.1148   -4.5968 C.ar    1  UNL1        0.0039
     10 C          62.7676   95.5387   -4.7719 C.ar    1  UNL1        0.0714
     11 C          62.8044   96.4628   -3.5909 C.ar    1  UNL1        0.0039
     12 C          62.4030   95.9629   -2.2347 C.ar    1  UNL1       -0.0001
     13 C          63.1690   96.0385   -6.1280 C.3     1  UNL1        0.4186
     14 F          63.5704   96.5383   -7.4841 F       1  UNL1       -0.1659
     15 F          64.6142   95.8872   -5.7560 F       1  UNL1       -0.1659
     16 F          61.7238   96.1897   -6.5000 F       1  UNL1       -0.1659
     17 C          59.0682   94.4746   -1.2817 C.3     1  UNL1        0.0801
     18 N          58.1686   93.4791   -1.9524 N.3     1  UNL1       -0.2703
     19 C          56.9036   93.0377   -1.2779 C.3     1  UNL1        0.0726
     20 C          56.0040   92.0422   -1.9486 C.3     1  UNL1        0.0259
     21 C          56.3694   91.4882   -3.2937 C.3     1  UNL1        0.0979
     22 C          57.6344   91.9296   -3.9683 C.3     1  UNL1        0.0259
     23 C          58.5340   92.9251   -3.2976 C.3     1  UNL1        0.0726
     24 C          55.4698   90.4928   -3.9644 C.3     1  UNL1        0.3976
     25 F          54.5702   89.4973   -4.6351 F       1  UNL1       -0.1701
     26 F          55.4735   89.6523   -2.7220 F       1  UNL1       -0.1701
     27 F          55.4660   91.3332   -5.2068 F       1  UNL1       -0.1701
     28 C          58.9209   95.9376   -1.5782 C.3     1  UNL1        0.0205
     29 C          56.8769   96.5053   -1.5807 C.3     1  UNL1        0.0001
     30 C          57.9488   96.3967   -2.6244 C.3     1  UNL1        0.0016
     31 C          59.0207   96.2881   -3.6680 C.3     1  UNL1        0.0001
     32 C          56.9768   96.8558   -3.6705 C.3     1  UNL1        0.0001
     33 C          63.2558   92.6042    2.5869 C.3     1  UNL1        0.0679
     34 C          63.0191   91.3737    3.4113 C.2     1  UNL1        0.0547
     35 O          61.8623   91.3208    4.3648 O.co2   1  UNL1       -0.5488
     36 O          63.9392   90.1960    3.2823 O.co2   1  UNL1       -0.5488
@<TRIPOS>UNITY_ATOM_ATTR
35 1
charge -1
@<TRIPOS>BOND
     1    29    30    1
     2    30    31    1
     3    30    32    1
     4    30    28    1
     5    28    17    1
     6    17     1    1
     7     1     2   ar
     8     2     3   ar
     9     3     4   ar
    10     4    33    1
    11    33    34    1
    12    34    35   ar
    13    34    36   ar
    14     4     5   ar
    15     5     6   ar
    16     6     7    1
    17     7     8   ar
    18     8     9   ar
    19     9    10   ar
    20    10    13    1
    21    13    14    1
    22    13    15    1
    23    13    16    1
    24    10    11   ar
    25    11    12   ar
    26    17    18    1
    27    18    19    1
    28    19    20    1
    29    20    21    1
    30    21    24    1
    31    24    25    1
    32    24    26    1
    33    24    27    1
    34    21    22    1
    35    22    23    1
    36     6     1   ar
    37    12     7   ar
    38    23    18    1
@<TRIPOS>MOLECULE
*****
 36 38 0 0 0
SMALL
GASTEIGER

@<TRIPOS>ATOM
      1 C          60.0328   93.9652   -1.9111 C.ar    1  UNL1       -0.0078
      2 C          61.3980   93.4191   -1.6145 C.ar    1  UNL1       -0.0033
      3 C          61.7627   93.0330   -0.2117 C.ar    1  UNL1       -0.0042
      4 C          60.7623   93.1930    0.8944 C.ar    1  UNL1       -0.0166
      5 C          59.3971   93.7390    0.5978 C.ar    1  UNL1       -0.0042
      6 C          59.0324   94.1251   -0.8050 C.ar    1  UNL1       -0.0030
      7 C          57.6671   94.6712   -1.1017 C.ar    1  UNL1       -0.0003
      8 C          56.5144   93.7349   -1.3128 C.ar    1  UNL1       -0.0001
      9 C          55.1492   94.2809   -1.6095 C.ar    1  UNL1        0.0039
     10 C          54.9367   95.7633   -1.6951 C.ar    1  UNL1        0.0714
     11 C          56.0894   96.6997   -1.4840 C.ar    1  UNL1        0.0039
     12 C          57.4546   96.1536   -1.1873 C.ar    1  UNL1       -0.0001
     13 C          53.5715   96.3093   -1.9918 C.3     1  UNL1        0.4186
     14 F          52.2063   96.8554   -2.2885 F       1  UNL1       -0.1659
     15 F          53.7434   95.9530   -3.4387 F       1  UNL1       -0.1659
     16 F          53.3996   96.6657   -0.5450 F       1  UNL1       -0.1659
     17 C          59.6680   94.3513   -3.3140 C.3     1  UNL1        0.0801
     18 N          58.6036   93.5912   -4.0483 N.3     1  UNL1       -0.2703
     19 C          58.2546   92.1941   -3.6284 C.3     1  UNL1        0.0726
     20 C          57.1902   91.4340   -4.3628 C.3     1  UNL1        0.0259
     21 C          56.4747   92.0710   -5.5170 C.3     1  UNL1        0.0979
     22 C          56.8237   93.4681   -5.9370 C.3     1  UNL1        0.0259
     23 C          57.8881   94.2282   -5.2027 C.3     1  UNL1        0.0726
     24 C          55.4103   91.3109   -6.2514 C.3     1  UNL1        0.3976
     25 F          54.3459   90.5508   -6.9857 F       1  UNL1       -0.1701
     26 F          55.0344   90.6091   -4.9801 F       1  UNL1       -0.1701
     27 F          55.7862   92.0127   -7.5227 F       1  UNL1       -0.1701
     28 C          60.3676   95.4974   -3.9824 C.3     1  UNL1        0.0205
     29 C          61.7846   94.3829   -5.1005 C.3     1  UNL1        0.0001
     30 C          61.8630   95.4976   -4.1000 C.3     1  UNL1        0.0016
     31 C          61.9415   96.6124   -3.0994 C.3     1  UNL1        0.0001
     32 C          63.3584   95.4979   -4.2175 C.3     1  UNL1        0.0001
     33 C          61.1271   92.8069    2.2973 C.3     1  UNL1        0.0679
     34 C          62.5646   92.5872    2.6650 C.2     1  UNL1        0.0547
     35 O          62.9750   91.3270    3.3674 O.co2   1  UNL1       -0.5488
     36 O          63.5918   93.6279    2.3303 O.co2   1  UNL1       -0.5488
@<TRIPOS>UNITY_ATOM_ATTR
35 1
charge -1
@<TRIPOS>BOND
     1    29    30    1
     2    30    31    1
     3    30    32    1
     4    30    28    1
     5    28    17    1
     6    17     1    1
     7     1     2   ar
     8     2     3   ar
     9     3     4   ar
    10     4    33    1
    11    33    34    1
    12    34    35   ar
    13    34    36   ar
    14     4     5   ar
    15     5     6   ar
    16     6     7    1
    17     7     8   ar
    18     8     9   ar
    19     9    10   ar
    20    10    13    1
    21    13    14    1
    22    13    15    1
    23    13    16    1
    24    10    11   ar
    25    11    12   ar
    26    17    18    1
    27    18    19    1
    28    19    20    1
    29    20    21    1
    30    21    24    1
    31    24    25    1
    32    24    26    1
    33    24    27    1
    34    21    22    1
    35    22    23    1
    36     6     1   ar
    37    12     7   ar
    38    23    18    1
@<TRIPOS>MOLECULE
*****
 36 38 0 0 0
SMALL
GASTEIGER

@<TRIPOS>ATOM
      1 C          59.6803   94.4104   -2.6678 C.ar    1  UNL1       -0.0078
      2 C          58.7237   94.0174   -3.7543 C.ar    1  UNL1       -0.0033
      3 C          59.1518   94.0835   -5.1904 C.ar    1  UNL1       -0.0042
      4 C          60.5363   94.5426   -5.5400 C.ar    1  UNL1       -0.0166
      5 C          61.4929   94.9356   -4.4535 C.ar    1  UNL1       -0.0042
      6 C          61.0649   94.8695   -3.0174 C.ar    1  UNL1       -0.0030
      7 C          62.0214   95.2625   -1.9308 C.ar    1  UNL1       -0.0003
      8 C          61.7357   96.4630   -1.0781 C.ar    1  UNL1       -0.0001
      9 C          62.6922   96.8560    0.0084 C.ar    1  UNL1        0.0039
     10 C          63.9345   96.0484    0.2423 C.ar    1  UNL1        0.0714
     11 C          64.2203   94.8479   -0.6104 C.ar    1  UNL1        0.0039
     12 C          63.2637   94.4550   -1.6970 C.ar    1  UNL1       -0.0001
     13 C          64.8910   96.4414    1.3288 C.3     1  UNL1        0.4186
     14 F          65.8475   96.8344    2.4154 F       1  UNL1       -0.1659
     15 F          63.7426   96.6093    2.2791 F       1  UNL1       -0.1659
     16 F          66.0394   96.2736    0.3786 F       1  UNL1       -0.1659
     17 C          59.2523   94.3443   -1.2317 C.3     1  UNL1        0.0801
     18 N          60.1357   93.6832   -0.2155 N.3     1  UNL1       -0.2703
     19 C          60.3317   94.3136    1.1314 C.3     1  UNL1        0.0726
     20 C          61.2151   93.6526    2.1475 C.3     1  UNL1        0.0259
     21 C          61.9026   92.3611    1.8168 C.3     1  UNL1        0.0979
     22 C          61.7066   91.7306    0.4699 C.3     1  UNL1        0.0259
     23 C          60.8232   92.3917   -0.5463 C.3     1  UNL1        0.0726
     24 C          62.7860   91.7001    2.8330 C.3     1  UNL1        0.3976
     25 F          63.6694   91.0390    3.8491 F       1  UNL1       -0.1701
     26 F          61.6335   91.6321    3.7907 F       1  UNL1       -0.1701
     27 F          63.9384   91.7680    1.8753 F       1  UNL1       -0.1701
     28 C          57.9410   94.9392   -0.8117 C.3     1  UNL1        0.0205
     29 C          57.0665   93.0074   -0.8728 C.3     1  UNL1        0.0001
     30 C          56.6566   94.3725   -1.3403 C.3     1  UNL1        0.0016
     31 C          56.2468   95.7375   -1.8079 C.3     1  UNL1        0.0001
     32 C          55.3724   93.8058   -1.8689 C.3     1  UNL1        0.0001
     33 C          60.9643   94.6088   -6.9762 C.3     1  UNL1        0.0679
     34 C          62.4168   94.4920   -7.3321 C.2     1  UNL1        0.0547
     35 O          63.2401   95.7288   -7.5386 O.co2   1  UNL1       -0.5488
     36 O          63.0460   93.1385   -7.4815 O.co2   1  UNL1       -0.5488
@<TRIPOS>UNITY_ATOM_ATTR
35 1
charge -1
@<TRIPOS>BOND
     1    29    30    1
     2    30    31    1
     3    30    32    1
     4    30    28    1
     5    28    17    1
     6    17     1    1
     7     1     2   ar
     8     2     3   ar
     9     3     4   ar
    10     4    33    1
    11    33    34    1
    12    34    35   ar
    13    34    36   ar
    14     4     5   ar
    15     5     6   ar
    16     6     7    1
    17     7     8   ar
    18     8     9   ar
    19     9    10   ar
    20    10    13    1
    21    13    14    1
    22    13    15    1
    23    13    16    1
    24    10    11   ar
    25    11    12   ar
    26    17    18    1
    27    18    19    1
    28    19    20    1
    29    20    21    1
    30    21    24    1
    31    24    25    1
    32    24    26    1
    33    24    27    1
    34    21    22    1
    35    22    23    1
    36     6     1   ar
    37    12     7   ar
    38    23    18    1
