@<TRIPOS>MOLECULE
*****
 11 11 0 0 0
SMALL
GASTEIGER

@<TRIPOS>ATOM
      1 C          62.9201   84.7845   10.0194 C.ar    1  UNL1       -0.0016
      2 C          62.5637   85.7123    8.8961 C.ar    1  UNL1       -0.0011
      3 C          61.6509   86.8762    9.1455 C.ar    1  UNL1        0.0204
      4 C          61.0946   87.1123   10.5184 C.ar    1  UNL1        0.0989
      5 N          61.4511   86.1844   11.6418 N.ar    1  UNL1       -0.2426
      6 C          62.3638   85.0205   11.3923 C.ar    1  UNL1        0.0946
      7 C          63.8329   83.6206    9.7699 C.3     1  UNL1        0.0448
      8 N          65.0507   82.5899   11.8205 N.3     1  UNL1       -0.3209
      9 C          63.9578   82.5323   10.7946 C.3     1  UNL1        0.0699
     10 H          64.9863   81.7760   12.4319 H       1  UNL1        0.1189
     11 H          64.9520   83.4404   12.3750 H       1  UNL1        0.1189
@<TRIPOS>BOND
     1     8     9    1
     2     9     7    1
     3     7     1    1
     4     1     2   ar
     5     2     3   ar
     6     3     4   ar
     7     4     5   ar
     8     5     6   ar
     9     6     1   ar
    10     8    10    1
    11     8    11    1
@<TRIPOS>MOLECULE
*****
 11 11 0 0 0
SMALL
GASTEIGER

@<TRIPOS>ATOM
      1 C          61.0585   87.1354    9.5111 C.ar    1  UNL1       -0.0016
      2 C          61.9827   86.2319    8.7499 C.ar    1  UNL1       -0.0011
      3 C          62.7610   85.1733    9.4735 C.ar    1  UNL1        0.0204
      4 C          62.6152   85.0182   10.9583 C.ar    1  UNL1        0.0989
      5 N          61.6910   85.9218   11.7195 N.ar    1  UNL1       -0.2426
      6 C          60.9127   86.9804   10.9959 C.ar    1  UNL1        0.0946
      7 C          60.2802   88.1941    8.7875 C.3     1  UNL1        0.0448
      8 N          58.3891   86.6914    7.8306 N.3     1  UNL1       -0.3209
      9 C          59.3682   87.8147    7.6587 C.3     1  UNL1        0.0699
     10 H          57.8545   86.5717    6.9703 H       1  UNL1        0.1189
     11 H          57.7537   86.9088    8.5983 H       1  UNL1        0.1189
@<TRIPOS>BOND
     1     8     9    1
     2     9     7    1
     3     7     1    1
     4     1     2   ar
     5     2     3   ar
     6     3     4   ar
     7     4     5   ar
     8     5     6   ar
     9     6     1   ar
    10     8    10    1
    11     8    11    1
@<TRIPOS>MOLECULE
*****
 11 11 0 0 0
SMALL
GASTEIGER

@<TRIPOS>ATOM
      1 C          60.9627   87.5126   10.0215 C.ar    1  UNL1       -0.0016
      2 C          62.2510   88.2553    9.8255 C.ar    1  UNL1       -0.0011
      3 C          62.5619   89.4541   10.6718 C.ar    1  UNL1        0.0204
      4 C          61.5843   89.9102   11.7141 C.ar    1  UNL1        0.0989
      5 N          60.2960   89.1675   11.9100 N.ar    1  UNL1       -0.2426
      6 C          59.9852   87.9686   11.0637 C.ar    1  UNL1        0.0946
      7 C          60.6519   86.3137    9.1752 C.3     1  UNL1        0.0448
      8 N          58.4467   86.7120    7.8603 N.3     1  UNL1       -0.3209
      9 C          59.9291   86.4829    7.8717 C.3     1  UNL1        0.0699
     10 H          58.1244   86.8043    6.8970 H       1  UNL1        0.1189
     11 H          58.2307   87.5660    8.3745 H       1  UNL1        0.1189
@<TRIPOS>BOND
     1     8     9    1
     2     9     7    1
     3     7     1    1
     4     1     2   ar
     5     2     3   ar
     6     3     4   ar
     7     4     5   ar
     8     5     6   ar
     9     6     1   ar
    10     8    10    1
    11     8    11    1
@<TRIPOS>MOLECULE
*****
 11 11 0 0 0
SMALL
GASTEIGER

@<TRIPOS>ATOM
      1 C          62.8009   83.6948   12.7396 C.ar    1  UNL1       -0.0016
      2 C          62.8562   82.6081   11.7073 C.ar    1  UNL1       -0.0011
      3 C          62.8688   81.1696   12.1325 C.ar    1  UNL1        0.0204
      4 C          62.8261   80.8180   13.5900 C.ar    1  UNL1        0.0989
      5 N          62.7708   81.9048   14.6224 N.ar    1  UNL1       -0.2426
      6 C          62.7582   83.3432   14.1972 C.ar    1  UNL1        0.0946
      7 C          62.7883   85.1333   12.3145 C.3     1  UNL1        0.0448
      8 N          60.9237   86.7130   11.4325 N.3     1  UNL1       -0.3209
      9 C          61.8806   85.5801   11.2070 C.3     1  UNL1        0.0699
     10 H          60.3891   86.8812   10.5803 H       1  UNL1        0.1189
     11 H          61.4450   87.5545   11.6785 H       1  UNL1        0.1189
@<TRIPOS>BOND
     1     8     9    1
     2     9     7    1
     3     7     1    1
     4     1     2   ar
     5     2     3   ar
     6     3     4   ar
     7     4     5   ar
     8     5     6   ar
     9     6     1   ar
    10     8    10    1
    11     8    11    1
@<TRIPOS>MOLECULE
*****
 11 11 0 0 0
SMALL
GASTEIGER

@<TRIPOS>ATOM
      1 C          66.6837   93.1154   11.1769 C.ar    1  UNL1       -0.0016
      2 C          67.5904   92.3510   10.2586 C.ar    1  UNL1       -0.0011
      3 C          68.2274   93.0405    9.0886 C.ar    1  UNL1        0.0204
      4 C          67.9576   94.4944    8.8370 C.ar    1  UNL1        0.0989
      5 N          67.0509   95.2588    9.7553 N.ar    1  UNL1       -0.2426
      6 C          66.4139   94.5693   10.9253 C.ar    1  UNL1        0.0946
      7 C          66.0467   92.4259   12.3469 C.3     1  UNL1        0.0448
      8 N          66.2084   93.8178   14.5347 N.3     1  UNL1       -0.3209
      9 C          66.6048   92.6184   13.7258 C.3     1  UNL1        0.0699
     10 H          66.6784   93.7883   15.4394 H       1  UNL1        0.1189
     11 H          65.1982   93.8138   14.6760 H       1  UNL1        0.1189
@<TRIPOS>BOND
     1     8     9    1
     2     9     7    1
     3     7     1    1
     4     1     2   ar
     5     2     3   ar
     6     3     4   ar
     7     4     5   ar
     8     5     6   ar
     9     6     1   ar
    10     8    10    1
    11     8    11    1
@<TRIPOS>MOLECULE
*****
 11 11 0 0 0
SMALL
GASTEIGER

@<TRIPOS>ATOM
      1 C          66.3358   92.1481   13.9010 C.ar    1  UNL1       -0.0016
      2 C          66.1772   92.6018   15.3219 C.ar    1  UNL1       -0.0011
      3 C          67.3875   92.9416   16.1402 C.ar    1  UNL1        0.0204
      4 C          68.7564   92.8276   15.5377 C.ar    1  UNL1        0.0989
      5 N          68.9150   92.3739   14.1168 N.ar    1  UNL1       -0.2426
      6 C          67.7047   92.0341   13.2985 C.ar    1  UNL1        0.0946
      7 C          65.1254   91.8083   13.0827 C.3     1  UNL1        0.0448
      8 N          63.1490   90.8730   14.4858 N.3     1  UNL1       -0.3209
      9 C          64.2460   90.6617   13.4848 C.3     1  UNL1        0.0699
     10 H          62.6553   89.9938   14.6398 H       1  UNL1        0.1189
     11 H          62.4960   91.5722   14.1321 H       1  UNL1        0.1189
@<TRIPOS>BOND
     1     8     9    1
     2     9     7    1
     3     7     1    1
     4     1     2   ar
     5     2     3   ar
     6     3     4   ar
     7     4     5   ar
     8     5     6   ar
     9     6     1   ar
    10     8    10    1
    11     8    11    1
@<TRIPOS>MOLECULE
*****
 11 11 0 0 0
SMALL
GASTEIGER

@<TRIPOS>ATOM
      1 C          63.1786   84.0452   14.0294 C.ar    1  UNL1       -0.0016
      2 C          64.3675   84.9553   14.1188 C.ar    1  UNL1       -0.0011
      3 C          64.5127   85.8872   15.2851 C.ar    1  UNL1        0.0204
      4 C          63.4689   85.9091   16.3621 C.ar    1  UNL1        0.0989
      5 N          62.2799   84.9989   16.2728 N.ar    1  UNL1       -0.2426
      6 C          62.1348   84.0670   15.1064 C.ar    1  UNL1        0.0946
      7 C          63.0334   83.1133   12.8630 C.3     1  UNL1        0.0448
      8 N          64.9578   82.8868   11.1324 N.3     1  UNL1       -0.3209
      9 C          64.2295   82.3748   12.3396 C.3     1  UNL1        0.0699
     10 H          65.7388   82.2666   10.9181 H       1  UNL1        0.1189
     11 H          65.3105   83.8251   11.3206 H       1  UNL1        0.1189
@<TRIPOS>BOND
     1     8     9    1
     2     9     7    1
     3     7     1    1
     4     1     2   ar
     5     2     3   ar
     6     3     4   ar
     7     4     5   ar
     8     5     6   ar
     9     6     1   ar
    10     8    10    1
    11     8    11    1
@<TRIPOS>MOLECULE
*****
 11 11 0 0 0
SMALL
GASTEIGER

@<TRIPOS>ATOM
      1 C          66.9233   91.9718   13.5485 C.ar    1  UNL1       -0.0016
      2 C          65.6554   92.4304   12.8913 C.ar    1  UNL1       -0.0011
      3 C          65.6457   92.7591   11.4278 C.ar    1  UNL1        0.0204
      4 C          66.9038   92.6290   10.6215 C.ar    1  UNL1        0.0989
      5 N          68.1717   92.1703   11.2787 N.ar    1  UNL1       -0.2426
      6 C          68.1814   91.8417   12.7423 C.ar    1  UNL1        0.0946
      7 C          66.9330   91.6432   15.0121 C.3     1  UNL1        0.0448
      8 N          65.2325   92.8073   16.5941 N.3     1  UNL1       -0.3209
      9 C          66.6152   92.7061   16.0215 C.3     1  UNL1        0.0699
     10 H          65.1957   93.5797   17.2593 H       1  UNL1        0.1189
     11 H          64.9973   91.9367   17.0706 H       1  UNL1        0.1189
@<TRIPOS>BOND
     1     8     9    1
     2     9     7    1
     3     7     1    1
     4     1     2   ar
     5     2     3   ar
     6     3     4   ar
     7     4     5   ar
     8     5     6   ar
     9     6     1   ar
    10     8    10    1
    11     8    11    1
@<TRIPOS>MOLECULE
*****
 11 11 0 0 0
SMALL
GASTEIGER

@<TRIPOS>ATOM
      1 C          62.7574   84.7853   10.7677 C.ar    1  UNL1       -0.0016
      2 C          63.5993   83.8629    9.9369 C.ar    1  UNL1       -0.0011
      3 C          64.3432   82.7352   10.5887 C.ar    1  UNL1        0.0204
      4 C          64.2451   82.5298   12.0713 C.ar    1  UNL1        0.0989
      5 N          63.4032   83.4522   12.9021 N.ar    1  UNL1       -0.2426
      6 C          62.6593   84.5799   12.2503 C.ar    1  UNL1        0.0946
      7 C          62.0135   85.9130   10.1159 C.3     1  UNL1        0.0448
      8 N          60.4236   87.4612   11.4669 N.3     1  UNL1       -0.3209
      9 C          61.7720   87.1871   10.8698 C.3     1  UNL1        0.0699
     10 H          60.4383   88.3651   11.9394 H       1  UNL1        0.1189
     11 H          60.1945   86.7296   12.1397 H       1  UNL1        0.1189
@<TRIPOS>BOND
     1     8     9    1
     2     9     7    1
     3     7     1    1
     4     1     2   ar
     5     2     3   ar
     6     3     4   ar
     7     4     5   ar
     8     5     6   ar
     9     6     1   ar
    10     8    10    1
    11     8    11    1
