@<TRIPOS>MOLECULE
*****
 28 31 0 0 0
SMALL
GASTEIGER

@<TRIPOS>ATOM
      1 C          63.8168   88.5349   13.7142 C.ar    1  UNL1        0.0506
      2 C          63.8459   87.0613   13.9925 C.ar    1  UNL1        0.1522
      3 O          64.4745   86.5486   15.2542 O.3     1  UNL1       -0.5039
      4 C          63.2463   86.1003   13.0090 C.ar    1  UNL1        0.1148
      5 N          62.6177   86.6131   11.7473 N.ar    1  UNL1       -0.2423
      6 C          62.5887   88.0868   11.4690 C.ar    1  UNL1        0.0815
      7 C          61.9601   88.5996   10.2073 C.ar    1  UNL1        0.0177
      8 C          61.9310   90.0732    9.9290 C.ar    1  UNL1        0.0015
      9 C          62.5306   91.0341   10.9124 C.ar    1  UNL1        0.0001
     10 C          63.1592   90.5213   12.1741 C.ar    1  UNL1        0.0016
     11 C          63.1882   89.0477   12.4524 C.ar    1  UNL1        0.0217
     12 H          64.8490   87.1488   15.8685 H       1  UNL1        0.2923
     13 C          63.2753   84.6267   13.2873 C.ar    1  UNL1        0.0207
     14 C          62.3653   84.0416   14.3263 C.ar    1  UNL1        0.0025
     15 C          62.3944   82.5678   14.6046 C.ar    1  UNL1        0.0114
     16 C          63.3334   81.6793   13.8439 C.ar    1  UNL1        0.0577
     17 CL         63.3624   80.2057   14.1222 Cl      1  UNL1       -0.0822
     18 C          64.2434   82.2645   12.8049 C.ar    1  UNL1        0.0114
     19 C          64.2144   83.7381   12.5266 C.ar    1  UNL1        0.0025
     20 C          61.3605   87.6386    9.2238 C.ar    1  UNL1        0.0014
     21 C          59.9418   87.8169    8.7706 C.ar    1  UNL1        0.0000
     22 C          59.3422   86.8560    7.7871 C.ar    1  UNL1        0.0000
     23 C          60.1614   85.7167    7.2570 C.ar    1  UNL1        0.0000
     24 C          61.5801   85.5384    7.7103 C.ar    1  UNL1        0.0000
     25 C          62.1796   86.4993    8.6937 C.ar    1  UNL1        0.0000
     26 O          65.6218   90.3037   14.3173 O.co2   1  UNL1       -0.5445
     27 C          64.4164   89.4958   14.6976 C.2     1  UNL1        0.0759
     28 O          63.8107   89.6489   16.0613 O.co2   1  UNL1       -0.5445
@<TRIPOS>UNITY_ATOM_ATTR
26 1
charge -1
@<TRIPOS>BOND
     1    26    27   ar
     2    27    28   ar
     3    27     1    1
     4     1     2   ar
     5     2     3    1
     6     2     4   ar
     7     4    13    1
     8    13    14   ar
     9    14    15   ar
    10    15    16   ar
    11    16    17    1
    12    16    18   ar
    13    18    19   ar
    14     4     5   ar
    15     5     6   ar
    16     6     7   ar
    17     7    20    1
    18    20    21   ar
    19    21    22   ar
    20    22    23   ar
    21    23    24   ar
    22    24    25   ar
    23     7     8   ar
    24     8     9   ar
    25     9    10   ar
    26    10    11   ar
    27    11     1   ar
    28    19    13   ar
    29    11     6   ar
    30    25    20   ar
    31     3    12    1
@<TRIPOS>MOLECULE
*****
 28 31 0 0 0
SMALL
GASTEIGER

@<TRIPOS>ATOM
      1 C          63.8601   88.8172   13.6782 C.ar    1  UNL1        0.0506
      2 C          63.9401   87.3484   13.9716 C.ar    1  UNL1        0.1522
      3 O          64.6175   86.8690   15.2211 O.3     1  UNL1       -0.5039
      4 C          63.3427   86.3589   13.0155 C.ar    1  UNL1        0.1148
      5 N          62.6653   86.8383   11.7660 N.ar    1  UNL1       -0.2423
      6 C          62.5853   88.3072   11.4726 C.ar    1  UNL1        0.0815
      7 C          61.9079   88.7866   10.2230 C.ar    1  UNL1        0.0177
      8 C          61.8278   90.2554    9.9296 C.ar    1  UNL1        0.0015
      9 C          62.4252   91.2448   10.8857 C.ar    1  UNL1        0.0001
     10 C          63.1026   90.7654   12.1352 C.ar    1  UNL1        0.0016
     11 C          63.1826   89.2966   12.4286 C.ar    1  UNL1        0.0217
     12 H          64.9907   87.4871   15.8183 H       1  UNL1        0.2923
     13 C          63.4227   84.8901   13.3089 C.ar    1  UNL1        0.0207
     14 C          63.5178   84.4128   14.7277 C.ar    1  UNL1        0.0025
     15 C          63.5978   82.9439   15.0211 C.ar    1  UNL1        0.0114
     16 C          63.5828   81.9524   13.8957 C.ar    1  UNL1        0.0577
     17 CL         63.6628   80.4836   14.1891 Cl      1  UNL1       -0.0822
     18 C          63.4878   82.4297   12.4768 C.ar    1  UNL1        0.0114
     19 C          63.4078   83.8985   12.1834 C.ar    1  UNL1        0.0025
     20 C          61.3105   87.7971    9.2669 C.ar    1  UNL1        0.0014
     21 C          62.1200   86.6248    8.7976 C.ar    1  UNL1        0.0000
     22 C          61.5226   85.6353    7.8415 C.ar    1  UNL1        0.0000
     23 C          60.1156   85.8182    7.3547 C.ar    1  UNL1        0.0000
     24 C          59.3061   86.9905    7.8241 C.ar    1  UNL1        0.0000
     25 C          59.9035   87.9799    8.7802 C.ar    1  UNL1        0.0000
     26 O          63.7031   90.2076   15.8673 O.co2   1  UNL1       -0.5445
     27 C          64.4574   89.8066   14.6342 C.2     1  UNL1        0.0759
     28 O          65.8091   90.3951   14.3574 O.co2   1  UNL1       -0.5445
@<TRIPOS>UNITY_ATOM_ATTR
26 1
charge -1
@<TRIPOS>BOND
     1    26    27   ar
     2    27    28   ar
     3    27     1    1
     4     1     2   ar
     5     2     3    1
     6     2     4   ar
     7     4    13    1
     8    13    14   ar
     9    14    15   ar
    10    15    16   ar
    11    16    17    1
    12    16    18   ar
    13    18    19   ar
    14     4     5   ar
    15     5     6   ar
    16     6     7   ar
    17     7    20    1
    18    20    21   ar
    19    21    22   ar
    20    22    23   ar
    21    23    24   ar
    22    24    25   ar
    23     7     8   ar
    24     8     9   ar
    25     9    10   ar
    26    10    11   ar
    27    11     1   ar
    28    19    13   ar
    29    11     6   ar
    30    25    20   ar
    31     3    12    1
@<TRIPOS>MOLECULE
*****
 28 31 0 0 0
SMALL
GASTEIGER

@<TRIPOS>ATOM
      1 C          63.9296   90.8407   14.9702 C.ar    1  UNL1        0.0506
      2 C          63.0488   90.3121   13.8772 C.ar    1  UNL1        0.1522
      3 O          61.8128   89.5345   14.2201 O.3     1  UNL1       -0.5039
      4 C          63.4040   90.5611   12.4412 C.ar    1  UNL1        0.1148
      5 N          64.6400   91.3387   12.0984 N.ar    1  UNL1       -0.2423
      6 C          65.5209   91.8673   13.1915 C.ar    1  UNL1        0.0815
      7 C          66.7569   92.6449   12.8486 C.ar    1  UNL1        0.0177
      8 C          67.6377   93.1735   13.9416 C.ar    1  UNL1        0.0015
      9 C          67.2825   92.9245   15.3775 C.ar    1  UNL1        0.0001
     10 C          66.0465   92.1469   15.7203 C.ar    1  UNL1        0.0016
     11 C          65.1657   91.6183   14.6273 C.ar    1  UNL1        0.0217
     12 H          61.5909   89.3790   15.1170 H       1  UNL1        0.2923
     13 C          62.5232   90.0325   11.3482 C.ar    1  UNL1        0.0207
     14 C          62.7831   88.6747   10.7662 C.ar    1  UNL1        0.0025
     15 C          61.9022   88.1461    9.6731 C.ar    1  UNL1        0.0114
     16 C          60.7615   88.9753    9.1622 C.ar    1  UNL1        0.0577
     17 CL         59.8806   88.4468    8.0692 Cl      1  UNL1       -0.0822
     18 C          60.5016   90.3332    9.7442 C.ar    1  UNL1        0.0114
     19 C          61.3824   90.8617   10.8372 C.ar    1  UNL1        0.0025
     20 C          67.1121   92.8939   11.4126 C.ar    1  UNL1        0.0014
     21 C          68.0296   91.9507   10.6926 C.ar    1  UNL1        0.0000
     22 C          68.3848   92.1997    9.2566 C.ar    1  UNL1        0.0000
     23 C          67.8225   93.3919    8.5408 C.ar    1  UNL1        0.0000
     24 C          66.9049   94.3351    9.2609 C.ar    1  UNL1        0.0000
     25 C          66.5498   94.0861   10.6968 C.ar    1  UNL1        0.0000
     26 O          63.2675   89.1993   16.8722 O.co2   1  UNL1       -0.5445
     27 C          63.5744   90.5917   16.4061 C.2     1  UNL1        0.0759
     28 O          63.5260   91.7350   17.3759 O.co2   1  UNL1       -0.5445
@<TRIPOS>UNITY_ATOM_ATTR
26 1
charge -1
@<TRIPOS>BOND
     1    26    27   ar
     2    27    28   ar
     3    27     1    1
     4     1     2   ar
     5     2     3    1
     6     2     4   ar
     7     4    13    1
     8    13    14   ar
     9    14    15   ar
    10    15    16   ar
    11    16    17    1
    12    16    18   ar
    13    18    19   ar
    14     4     5   ar
    15     5     6   ar
    16     6     7   ar
    17     7    20    1
    18    20    21   ar
    19    21    22   ar
    20    22    23   ar
    21    23    24   ar
    22    24    25   ar
    23     7     8   ar
    24     8     9   ar
    25     9    10   ar
    26    10    11   ar
    27    11     1   ar
    28    19    13   ar
    29    11     6   ar
    30    25    20   ar
    31     3    12    1
@<TRIPOS>MOLECULE
*****
 28 31 0 0 0
SMALL
GASTEIGER

@<TRIPOS>ATOM
      1 C          63.5655   88.6569   13.5489 C.ar    1  UNL1        0.0506
      2 C          62.7021   88.8781   12.3425 C.ar    1  UNL1        0.1522
      3 O          62.2378   90.2617   11.9959 O.3     1  UNL1       -0.5039
      4 C          62.3028   87.7156   11.4826 C.ar    1  UNL1        0.1148
      5 N          62.7670   86.3320   11.8293 N.ar    1  UNL1       -0.2423
      6 C          63.6305   86.1109   13.0358 C.ar    1  UNL1        0.0815
      7 C          64.0948   84.7273   13.3824 C.ar    1  UNL1        0.0177
      8 C          64.9582   84.5061   14.5888 C.ar    1  UNL1        0.0015
      9 C          65.3575   85.6686   15.4486 C.ar    1  UNL1        0.0001
     10 C          64.8932   87.0522   15.1019 C.ar    1  UNL1        0.0016
     11 C          64.0298   87.2733   13.8955 C.ar    1  UNL1        0.0217
     12 H          62.4873   90.9878   12.5330 H       1  UNL1        0.2923
     13 C          61.4393   87.9368   10.2762 C.ar    1  UNL1        0.0207
     14 C          61.0891   89.3316    9.8501 C.ar    1  UNL1        0.0025
     15 C          60.2255   89.5528    8.6436 C.ar    1  UNL1        0.0114
     16 C          59.7123   88.3790    7.8634 C.ar    1  UNL1        0.0577
     17 CL         58.8488   88.6002    6.6569 Cl      1  UNL1       -0.0822
     18 C          60.0626   86.9841    8.2895 C.ar    1  UNL1        0.0114
     19 C          60.9260   86.7630    9.4959 C.ar    1  UNL1        0.0025
     20 C          63.6955   83.5648   12.5225 C.ar    1  UNL1        0.0014
     21 C          64.3444   83.3633   11.1853 C.ar    1  UNL1        0.0000
     22 C          63.9451   82.2008   10.3254 C.ar    1  UNL1        0.0000
     23 C          62.8969   81.2399   10.8029 C.ar    1  UNL1        0.0000
     24 C          62.2480   81.4415   12.1402 C.ar    1  UNL1        0.0000
     25 C          62.6473   82.6039   13.0000 C.ar    1  UNL1        0.0000
     26 O          63.0785   90.2571   15.5370 O.co2   1  UNL1       -0.5445
     27 C          63.9648   89.8194   14.4087 C.2     1  UNL1        0.0759
     28 O          65.2503   90.5442   14.1402 O.co2   1  UNL1       -0.5445
@<TRIPOS>UNITY_ATOM_ATTR
26 1
charge -1
@<TRIPOS>BOND
     1    26    27   ar
     2    27    28   ar
     3    27     1    1
     4     1     2   ar
     5     2     3    1
     6     2     4   ar
     7     4    13    1
     8    13    14   ar
     9    14    15   ar
    10    15    16   ar
    11    16    17    1
    12    16    18   ar
    13    18    19   ar
    14     4     5   ar
    15     5     6   ar
    16     6     7   ar
    17     7    20    1
    18    20    21   ar
    19    21    22   ar
    20    22    23   ar
    21    23    24   ar
    22    24    25   ar
    23     7     8   ar
    24     8     9   ar
    25     9    10   ar
    26    10    11   ar
    27    11     1   ar
    28    19    13   ar
    29    11     6   ar
    30    25    20   ar
    31     3    12    1
@<TRIPOS>MOLECULE
*****
 28 31 0 0 0
SMALL
GASTEIGER

@<TRIPOS>ATOM
      1 C          64.0682   85.7040   13.7628 C.ar    1  UNL1        0.0506
      2 C          63.9284   84.2505   13.4196 C.ar    1  UNL1        0.1522
      3 O          64.5565   83.2088   14.2972 O.3     1  UNL1       -0.5039
      4 C          63.1603   83.8387   12.1986 C.ar    1  UNL1        0.1148
      5 N          62.5322   84.8804   11.3210 N.ar    1  UNL1       -0.2423
      6 C          62.6721   86.3340   11.6643 C.ar    1  UNL1        0.0815
      7 C          62.0439   87.3757   10.7867 C.ar    1  UNL1        0.0177
      8 C          62.1838   88.8291   11.1299 C.ar    1  UNL1        0.0015
      9 C          62.9518   89.2409   12.3508 C.ar    1  UNL1        0.0001
     10 C          63.5800   88.1991   13.2284 C.ar    1  UNL1        0.0016
     11 C          63.4401   86.7457   12.8852 C.ar    1  UNL1        0.0217
     12 H          65.0363   83.4660   15.0599 H       1  UNL1        0.2923
     13 C          63.0204   82.3853   11.8554 C.ar    1  UNL1        0.0207
     14 C          63.3608   81.9042   10.4760 C.ar    1  UNL1        0.0025
     15 C          63.2209   80.4507   10.1328 C.ar    1  UNL1        0.0114
     16 C          62.7407   79.4783   11.1690 C.ar    1  UNL1        0.0577
     17 CL         62.6008   78.0248   10.8257 Cl      1  UNL1       -0.0822
     18 C          62.4003   79.9593   12.5484 C.ar    1  UNL1        0.0114
     19 C          62.5402   81.4127   12.8916 C.ar    1  UNL1        0.0025
     20 C          61.2759   86.9639    9.5657 C.ar    1  UNL1        0.0014
     21 C          59.8894   87.4894    9.3392 C.ar    1  UNL1        0.0000
     22 C          59.1213   87.0776    8.1183 C.ar    1  UNL1        0.0000
     23 C          59.7398   86.1403    7.1239 C.ar    1  UNL1        0.0000
     24 C          61.1264   85.6147    7.3505 C.ar    1  UNL1        0.0000
     25 C          61.8944   86.0265    8.5714 C.ar    1  UNL1        0.0000
     26 O          64.1224   86.7509   16.1400 O.co2   1  UNL1       -0.5445
     27 C          64.8363   86.1157   14.9837 C.2     1  UNL1        0.0759
     28 O          66.3181   85.8923   15.0483 O.co2   1  UNL1       -0.5445
@<TRIPOS>UNITY_ATOM_ATTR
26 1
charge -1
@<TRIPOS>BOND
     1    26    27   ar
     2    27    28   ar
     3    27     1    1
     4     1     2   ar
     5     2     3    1
     6     2     4   ar
     7     4    13    1
     8    13    14   ar
     9    14    15   ar
    10    15    16   ar
    11    16    17    1
    12    16    18   ar
    13    18    19   ar
    14     4     5   ar
    15     5     6   ar
    16     6     7   ar
    17     7    20    1
    18    20    21   ar
    19    21    22   ar
    20    22    23   ar
    21    23    24   ar
    22    24    25   ar
    23     7     8   ar
    24     8     9   ar
    25     9    10   ar
    26    10    11   ar
    27    11     1   ar
    28    19    13   ar
    29    11     6   ar
    30    25    20   ar
    31     3    12    1
@<TRIPOS>MOLECULE
*****
 28 31 0 0 0
SMALL
GASTEIGER

@<TRIPOS>ATOM
      1 C          63.3153   83.9429   11.6412 C.ar    1  UNL1        0.0506
      2 C          62.5660   84.8543   10.7150 C.ar    1  UNL1        0.1522
      3 O          62.0355   84.3300    9.4136 O.3     1  UNL1       -0.5039
      4 C          62.3471   86.2901   11.0903 C.ar    1  UNL1        0.1148
      5 N          62.8777   86.8144   12.3917 N.ar    1  UNL1       -0.2423
      6 C          63.6270   85.9029   13.3179 C.ar    1  UNL1        0.0815
      7 C          64.1575   86.4272   14.6193 C.ar    1  UNL1        0.0177
      8 C          64.9069   85.5158   15.5454 C.ar    1  UNL1        0.0015
      9 C          65.1257   84.0801   15.1702 C.ar    1  UNL1        0.0001
     10 C          64.5951   83.5558   13.8687 C.ar    1  UNL1        0.0016
     11 C          63.8458   84.4672   12.9426 C.ar    1  UNL1        0.0217
     12 H          62.1721   83.4332    9.1792 H       1  UNL1        0.2923
     13 C          61.5978   87.2015   10.1641 C.ar    1  UNL1        0.0207
     14 C          60.6324   86.6302    9.1683 C.ar    1  UNL1        0.0025
     15 C          59.8830   87.5417    8.2422 C.ar    1  UNL1        0.0114
     16 C          60.0992   89.0244    8.3118 C.ar    1  UNL1        0.0577
     17 CL         59.3498   89.9358    7.3856 Cl      1  UNL1       -0.0822
     18 C          61.0646   89.5957    9.3076 C.ar    1  UNL1        0.0114
     19 C          61.8139   88.6843   10.2337 C.ar    1  UNL1        0.0025
     20 C          63.9387   87.8630   14.9945 C.ar    1  UNL1        0.0014
     21 C          64.3072   88.9539   14.0333 C.ar    1  UNL1        0.0000
     22 C          64.0884   90.3897   14.4085 C.ar    1  UNL1        0.0000
     23 C          63.5010   90.7344   15.7450 C.ar    1  UNL1        0.0000
     24 C          63.1325   89.6434   16.7062 C.ar    1  UNL1        0.0000
     25 C          63.3513   88.2077   16.3310 C.ar    1  UNL1        0.0000
     26 O          64.5994   82.1453   10.2738 O.co2   1  UNL1       -0.5445
     27 C          63.5341   82.5072   11.2659 C.2     1  UNL1        0.0759
     28 O          62.6877   81.4334   11.8828 O.co2   1  UNL1       -0.5445
@<TRIPOS>UNITY_ATOM_ATTR
26 1
charge -1
@<TRIPOS>BOND
     1    26    27   ar
     2    27    28   ar
     3    27     1    1
     4     1     2   ar
     5     2     3    1
     6     2     4   ar
     7     4    13    1
     8    13    14   ar
     9    14    15   ar
    10    15    16   ar
    11    16    17    1
    12    16    18   ar
    13    18    19   ar
    14     4     5   ar
    15     5     6   ar
    16     6     7   ar
    17     7    20    1
    18    20    21   ar
    19    21    22   ar
    20    22    23   ar
    21    23    24   ar
    22    24    25   ar
    23     7     8   ar
    24     8     9   ar
    25     9    10   ar
    26    10    11   ar
    27    11     1   ar
    28    19    13   ar
    29    11     6   ar
    30    25    20   ar
    31     3    12    1
@<TRIPOS>MOLECULE
*****
 28 31 0 0 0
SMALL
GASTEIGER

@<TRIPOS>ATOM
      1 C          62.9977   84.2400   13.6617 C.ar    1  UNL1        0.0506
      2 C          62.6948   84.1240   12.1972 C.ar    1  UNL1        0.1522
      3 O          62.3530   82.7887   11.6055 O.3     1  UNL1       -0.5039
      4 C          62.7337   85.3434   11.3244 C.ar    1  UNL1        0.1148
      5 N          63.0756   86.6787   11.9162 N.ar    1  UNL1       -0.2423
      6 C          63.3785   86.7945   13.3808 C.ar    1  UNL1        0.0815
      7 C          63.7204   88.1298   13.9725 C.ar    1  UNL1        0.0177
      8 C          64.0233   88.2458   15.4370 C.ar    1  UNL1        0.0015
      9 C          63.9844   87.0264   16.3097 C.ar    1  UNL1        0.0001
     10 C          63.6425   85.6912   15.7180 C.ar    1  UNL1        0.0016
     11 C          63.3396   85.5752   14.2535 C.ar    1  UNL1        0.0217
     12 H          62.3286   82.0271   12.1506 H       1  UNL1        0.2923
     13 C          62.4308   85.2274    9.8600 C.ar    1  UNL1        0.0207
     14 C          63.3956   84.5299    8.9474 C.ar    1  UNL1        0.0025
     15 C          63.0926   84.4140    7.4829 C.ar    1  UNL1        0.0114
     16 C          61.8249   84.9956    6.9309 C.ar    1  UNL1        0.0577
     17 CL         61.5220   84.8796    5.4664 Cl      1  UNL1       -0.0822
     18 C          60.8602   85.6931    7.8435 C.ar    1  UNL1        0.0114
     19 C          61.1631   85.8091    9.3079 C.ar    1  UNL1        0.0025
     20 C          63.7593   89.3492   13.0997 C.ar    1  UNL1        0.0014
     21 C          62.9398   89.3995   11.8444 C.ar    1  UNL1        0.0000
     22 C          62.9788   90.6188   10.9716 C.ar    1  UNL1        0.0000
     23 C          63.8372   91.7879   11.3542 C.ar    1  UNL1        0.0000
     24 C          64.6568   91.7376   12.6096 C.ar    1  UNL1        0.0000
     25 C          64.6178   90.5182   13.4823 C.ar    1  UNL1        0.0000
     26 O          61.7303   82.1604   14.5669 O.co2   1  UNL1       -0.5445
     27 C          62.9588   83.0206   14.5344 C.2     1  UNL1        0.0759
     28 O          64.1483   82.6614   15.3747 O.co2   1  UNL1       -0.5445
@<TRIPOS>UNITY_ATOM_ATTR
26 1
charge -1
@<TRIPOS>BOND
     1    26    27   ar
     2    27    28   ar
     3    27     1    1
     4     1     2   ar
     5     2     3    1
     6     2     4   ar
     7     4    13    1
     8    13    14   ar
     9    14    15   ar
    10    15    16   ar
    11    16    17    1
    12    16    18   ar
    13    18    19   ar
    14     4     5   ar
    15     5     6   ar
    16     6     7   ar
    17     7    20    1
    18    20    21   ar
    19    21    22   ar
    20    22    23   ar
    21    23    24   ar
    22    24    25   ar
    23     7     8   ar
    24     8     9   ar
    25     9    10   ar
    26    10    11   ar
    27    11     1   ar
    28    19    13   ar
    29    11     6   ar
    30    25    20   ar
    31     3    12    1
