@<TRIPOS>MOLECULE
*****
 32 36 0 0 0
SMALL
GASTEIGER

@<TRIPOS>ATOM
      1 O          63.5840   87.4193   13.0234 O.2     1  UNL1       -0.2699
      2 C          62.7851   86.7987   11.9159 C.2     1  UNL1        0.2506
      3 N          61.8043   87.6290   11.1423 N.am    1  UNL1       -0.2723
      4 C          61.0054   87.0084   10.0348 C.3     1  UNL1        0.1257
      5 C          60.0245   87.8388    9.2612 C.3     1  UNL1        0.1637
      6 O          59.8426   89.2898    9.5951 O.3     1  UNL1       -0.3502
      7 C          60.6414   89.9104   10.7027 C.3     1  UNL1        0.1622
      8 C          61.6223   89.0801   11.4762 C.3     1  UNL1        0.1096
      9 C          62.9671   85.3477   11.5819 C.ar    1  UNL1        0.0730
     10 C          63.0107   84.9077   10.1486 C.ar    1  UNL1        0.0070
     11 C          63.1927   83.4567    9.8146 C.ar    1  UNL1        0.0116
     12 C          63.3311   82.4458   10.9140 C.ar    1  UNL1        0.0592
     13 CL         63.5131   80.9947   10.5801 Cl      1  UNL1       -0.0822
     14 C          63.2875   82.8857   12.3474 C.ar    1  UNL1        0.0324
     15 C          63.1055   84.3367   12.6813 C.ar    1  UNL1        0.1081
     16 N          63.0620   84.7767   14.1147 N.ar    1  UNL1       -0.1476
     17 N          64.2214   85.2929   14.9142 N.ar    1  UNL1       -0.1447
     18 C          63.7273   85.6129   16.2938 C.ar    1  UNL1        0.1446
     19 C          62.2625   85.2945   16.3470 C.ar    1  UNL1        0.1446
     20 N          61.8513   84.7776   15.0003 N.ar    1  UNL1       -0.1447
     21 C          62.4212   89.7007   12.5837 C.3     1  UNL1        0.0488
     22 C          63.5234   90.6663   12.2634 C.ar    1  UNL1       -0.0189
     23 C          63.6103   91.2786   10.8969 C.ar    1  UNL1       -0.0041
     24 C          64.7126   92.2443   10.5764 C.ar    1  UNL1        0.0013
     25 C          65.7279   92.5975   11.6226 C.ar    1  UNL1        0.0209
     26 C          65.6410   91.9850   12.9891 C.ar    1  UNL1        0.1026
     27 C          64.5387   91.0195   13.3095 C.ar    1  UNL1        0.0167
     28 N          66.6563   92.3382   14.0353 N.ar    1  UNL1       -0.1478
     29 N          66.3599   92.7935   15.4334 N.ar    1  UNL1       -0.1447
     30 C          67.6667   93.0348   16.1292 C.ar    1  UNL1        0.1446
     31 C          68.7707   92.7286   15.1611 C.ar    1  UNL1        0.1446
     32 N          68.1463   92.2981   13.8669 N.ar    1  UNL1       -0.1447
@<TRIPOS>BOND
     1     1     2    2
     2     2     9    1
     3     9    10   ar
     4    10    11   ar
     5    11    12   ar
     6    12    13    1
     7    12    14   ar
     8    14    15   ar
     9    15    16    1
    10    16    17   ar
    11    17    18   ar
    12    18    19   ar
    13    19    20   ar
    14     2     3   am
    15     3     4    1
    16     4     5    1
    17     5     6    1
    18     6     7    1
    19     7     8    1
    20     8    21    1
    21    21    22    1
    22    22    23   ar
    23    23    24   ar
    24    24    25   ar
    25    25    26   ar
    26    26    28    1
    27    28    29   ar
    28    29    30   ar
    29    30    31   ar
    30    31    32   ar
    31    26    27   ar
    32    15     9   ar
    33    20    16   ar
    34     8     3    1
    35    27    22   ar
    36    32    28   ar
@<TRIPOS>MOLECULE
*****
 32 36 0 0 0
SMALL
GASTEIGER

@<TRIPOS>ATOM
      1 O          63.7282   87.5412   13.9290 O.2     1  UNL1       -0.2699
      2 C          63.1271   87.1098   12.6242 C.2     1  UNL1        0.2506
      3 N          62.5454   88.1312   11.6924 N.am    1  UNL1       -0.2723
      4 C          61.9443   87.6998   10.3875 C.3     1  UNL1        0.1257
      5 C          61.3626   88.7213    9.4557 C.3     1  UNL1        0.1637
      6 O          61.3821   90.1740    9.8286 O.3     1  UNL1       -0.3502
      7 C          61.9832   90.6054   11.1334 C.3     1  UNL1        0.1622
      8 C          62.5649   89.5840   12.0653 C.3     1  UNL1        0.1096
      9 C          63.1076   85.6570   12.2513 C.ar    1  UNL1        0.0730
     10 C          63.1427   85.2529   10.8072 C.ar    1  UNL1        0.0070
     11 C          63.1233   83.8001   10.4342 C.ar    1  UNL1        0.0116
     12 C          63.0686   82.7515   11.5054 C.ar    1  UNL1        0.0592
     13 CL         63.0492   81.2987   11.1324 Cl      1  UNL1       -0.0822
     14 C          63.0335   83.1557   12.9495 C.ar    1  UNL1        0.0324
     15 C          63.0530   84.6084   13.3224 C.ar    1  UNL1        0.1081
     16 N          63.0178   85.0125   14.7665 N.ar    1  UNL1       -0.1476
     17 N          64.2045   85.3723   15.6106 N.ar    1  UNL1       -0.1447
     18 C          63.7099   85.7100   16.9858 C.ar    1  UNL1        0.1446
     19 C          62.2176   85.5589   16.9918 C.ar    1  UNL1        0.1446
     20 N          61.7899   85.1278   15.6202 N.ar    1  UNL1       -0.1447
     21 C          63.1660   90.0154   13.3701 C.3     1  UNL1        0.0488
     22 C          64.4530   90.7857   13.3847 C.ar    1  UNL1       -0.0189
     23 C          65.4075   90.6297   14.5312 C.ar    1  UNL1       -0.0041
     24 C          66.6945   91.4001   14.5459 C.ar    1  UNL1        0.0013
     25 C          67.0270   92.3264   13.4140 C.ar    1  UNL1        0.0209
     26 C          66.0724   92.4824   12.2674 C.ar    1  UNL1        0.1026
     27 C          64.7855   91.7121   12.2528 C.ar    1  UNL1        0.0167
     28 N          66.4049   93.4088   11.1354 N.ar    1  UNL1       -0.1478
     29 N          65.6380   94.6384   10.7480 N.ar    1  UNL1       -0.1447
     30 C          66.3218   95.2578    9.5653 C.ar    1  UNL1        0.1446
     31 C          67.5114   94.4110    9.2218 C.ar    1  UNL1        0.1446
     32 N          67.5628   93.2683   10.1921 N.ar    1  UNL1       -0.1447
@<TRIPOS>BOND
     1     1     2    2
     2     2     9    1
     3     9    10   ar
     4    10    11   ar
     5    11    12   ar
     6    12    13    1
     7    12    14   ar
     8    14    15   ar
     9    15    16    1
    10    16    17   ar
    11    17    18   ar
    12    18    19   ar
    13    19    20   ar
    14     2     3   am
    15     3     4    1
    16     4     5    1
    17     5     6    1
    18     6     7    1
    19     7     8    1
    20     8    21    1
    21    21    22    1
    22    22    23   ar
    23    23    24   ar
    24    24    25   ar
    25    25    26   ar
    26    26    28    1
    27    28    29   ar
    28    29    30   ar
    29    30    31   ar
    30    31    32   ar
    31    26    27   ar
    32    15     9   ar
    33    20    16   ar
    34     8     3    1
    35    27    22   ar
    36    32    28   ar
@<TRIPOS>MOLECULE
*****
 32 36 0 0 0
SMALL
GASTEIGER

@<TRIPOS>ATOM
      1 O          63.7073   88.5431   12.2753 O.2     1  UNL1       -0.2699
      2 C          63.5486   87.5338   13.3735 C.2     1  UNL1        0.2506
      3 N          63.4244   87.9882   14.7976 N.am    1  UNL1       -0.2723
      4 C          63.2658   86.9789   15.8958 C.3     1  UNL1        0.1257
      5 C          63.1416   87.4334   17.3199 C.3     1  UNL1        0.1637
      6 O          63.1760   88.8972   17.6458 O.3     1  UNL1       -0.3502
      7 C          63.3347   89.9065   16.5475 C.3     1  UNL1        0.1622
      8 C          63.4589   89.4521   15.1235 C.3     1  UNL1        0.1096
      9 C          63.5142   86.0700   13.0476 C.ar    1  UNL1        0.0730
     10 C          64.3343   85.1036   13.8498 C.ar    1  UNL1        0.0070
     11 C          64.2998   83.6398   13.5239 C.ar    1  UNL1        0.0116
     12 C          63.4453   83.1425   12.3959 C.ar    1  UNL1        0.0592
     13 CL         63.4109   81.6787   12.0700 Cl      1  UNL1       -0.0822
     14 C          62.6252   84.1089   11.5938 C.ar    1  UNL1        0.0324
     15 C          62.6597   85.5727   11.9196 C.ar    1  UNL1        0.1081
     16 N          61.8396   86.5391   11.1174 N.ar    1  UNL1       -0.1476
     17 N          60.6270   87.2788   11.5996 N.ar    1  UNL1       -0.1447
     18 C          60.1261   88.1324   10.4724 C.ar    1  UNL1        0.1446
     19 C          61.0290   87.9202    9.2936 C.ar    1  UNL1        0.1446
     20 N          62.0880   86.9355    9.6923 N.ar    1  UNL1       -0.1447
     21 C          63.6175   90.4614   14.0252 C.3     1  UNL1        0.0488
     22 C          64.9316   91.1582   13.8311 C.ar    1  UNL1       -0.0189
     23 C          66.0359   90.9679   14.8282 C.ar    1  UNL1       -0.0041
     24 C          67.3500   91.6648   14.6341 C.ar    1  UNL1        0.0013
     25 C          67.5597   92.5519   13.4429 C.ar    1  UNL1        0.0209
     26 C          66.4553   92.7422   12.4458 C.ar    1  UNL1        0.1026
     27 C          65.1413   92.0454   12.6399 C.ar    1  UNL1        0.0167
     28 N          66.6650   93.6294   11.2546 N.ar    1  UNL1       -0.1478
     29 N          67.7225   93.4600   10.2044 N.ar    1  UNL1       -0.1447
     30 C          67.5651   94.5676    9.2052 C.ar    1  UNL1        0.1446
     31 C          66.4103   95.4215    9.6378 C.ar    1  UNL1        0.1446
     32 N          65.8539   94.8417   10.9044 N.ar    1  UNL1       -0.1447
@<TRIPOS>BOND
     1     1     2    2
     2     2     9    1
     3     9    10   ar
     4    10    11   ar
     5    11    12   ar
     6    12    13    1
     7    12    14   ar
     8    14    15   ar
     9    15    16    1
    10    16    17   ar
    11    17    18   ar
    12    18    19   ar
    13    19    20   ar
    14     2     3   am
    15     3     4    1
    16     4     5    1
    17     5     6    1
    18     6     7    1
    19     7     8    1
    20     8    21    1
    21    21    22    1
    22    22    23   ar
    23    23    24   ar
    24    24    25   ar
    25    25    26   ar
    26    26    28    1
    27    28    29   ar
    28    29    30   ar
    29    30    31   ar
    30    31    32   ar
    31    26    27   ar
    32    15     9   ar
    33    20    16   ar
    34     8     3    1
    35    27    22   ar
    36    32    28   ar
@<TRIPOS>MOLECULE
*****
 32 36 0 0 0
SMALL
GASTEIGER

@<TRIPOS>ATOM
      1 O          62.7032   90.0537   11.5390 O.2     1  UNL1       -0.2699
      2 C          62.7194   88.5543   11.5801 C.2     1  UNL1        0.2506
      3 N          63.3511   87.8426   12.7396 N.am    1  UNL1       -0.2723
      4 C          63.3673   86.3433   12.7807 C.3     1  UNL1        0.1257
      5 C          63.9990   85.6316   13.9402 C.3     1  UNL1        0.1637
      6 O          64.6145   86.4192   15.0586 O.3     1  UNL1       -0.3502
      7 C          64.5983   87.9186   15.0175 C.3     1  UNL1        0.1622
      8 C          63.9666   88.6303   13.8580 C.3     1  UNL1        0.1096
      9 C          62.1039   87.7667   10.4617 C.ar    1  UNL1        0.0730
     10 C          62.9343   86.7833    9.6914 C.ar    1  UNL1        0.0070
     11 C          62.3188   85.9956    8.5730 C.ar    1  UNL1        0.0116
     12 C          60.8730   86.1914    8.2249 C.ar    1  UNL1        0.0592
     13 CL         60.2575   85.4038    7.1065 Cl      1  UNL1       -0.0822
     14 C          60.0426   87.1749    8.9952 C.ar    1  UNL1        0.0324
     15 C          60.6581   87.9625   10.1136 C.ar    1  UNL1        0.1081
     16 N          59.8277   88.9459   10.8839 N.ar    1  UNL1       -0.1476
     17 N          59.0790   88.6646   12.1529 N.ar    1  UNL1       -0.1447
     18 C          58.3888   89.9282   12.5737 C.ar    1  UNL1        0.1446
     19 C          58.7109   90.9904   11.5648 C.ar    1  UNL1        0.1446
     20 N          59.6001   90.3833   10.5204 N.ar    1  UNL1       -0.1447
     21 C          63.9504   90.1296   13.8169 C.3     1  UNL1        0.0488
     22 C          65.2405   90.8921   13.7511 C.ar    1  UNL1       -0.0189
     23 C          66.1828   90.8737   14.9179 C.ar    1  UNL1       -0.0041
     24 C          67.4730   91.6362   14.8521 C.ar    1  UNL1        0.0013
     25 C          67.8206   92.4170   13.6195 C.ar    1  UNL1        0.0209
     26 C          66.8782   92.4354   12.4526 C.ar    1  UNL1        0.1026
     27 C          65.5881   91.6729   12.5184 C.ar    1  UNL1        0.0167
     28 N          67.2258   93.2162   11.2200 N.ar    1  UNL1       -0.1478
     29 N          67.9911   92.7017   10.0369 N.ar    1  UNL1       -0.1447
     30 C          68.1075   93.8162    9.0397 C.ar    1  UNL1        0.1446
     31 C          67.4142   95.0196    9.6065 C.ar    1  UNL1        0.1446
     32 N          66.8693   94.6488   10.9540 N.ar    1  UNL1       -0.1447
@<TRIPOS>BOND
     1     1     2    2
     2     2     9    1
     3     9    10   ar
     4    10    11   ar
     5    11    12   ar
     6    12    13    1
     7    12    14   ar
     8    14    15   ar
     9    15    16    1
    10    16    17   ar
    11    17    18   ar
    12    18    19   ar
    13    19    20   ar
    14     2     3   am
    15     3     4    1
    16     4     5    1
    17     5     6    1
    18     6     7    1
    19     7     8    1
    20     8    21    1
    21    21    22    1
    22    22    23   ar
    23    23    24   ar
    24    24    25   ar
    25    25    26   ar
    26    26    28    1
    27    28    29   ar
    28    29    30   ar
    29    30    31   ar
    30    31    32   ar
    31    26    27   ar
    32    15     9   ar
    33    20    16   ar
    34     8     3    1
    35    27    22   ar
    36    32    28   ar
@<TRIPOS>MOLECULE
*****
 32 36 0 0 0
SMALL
GASTEIGER

@<TRIPOS>ATOM
      1 O          62.9559   87.8785   12.5702 O.2     1  UNL1       -0.2699
      2 C          62.7550   89.0439   11.6474 C.2     1  UNL1        0.2506
      3 N          61.7166   88.9749   10.5671 N.am    1  UNL1       -0.2723
      4 C          61.5158   90.1403    9.6443 C.3     1  UNL1        0.1257
      5 C          60.4773   90.0712    8.5640 C.3     1  UNL1        0.1637
      6 O          59.6398   88.8368    8.4066 O.3     1  UNL1       -0.3502
      7 C          59.8407   87.6715    9.3294 C.3     1  UNL1        0.1622
      8 C          60.8790   87.7405   10.4096 C.3     1  UNL1        0.1096
      9 C          63.5926   90.2783   11.8048 C.ar    1  UNL1        0.0730
     10 C          63.9038   91.1309   10.6106 C.ar    1  UNL1        0.0070
     11 C          64.7413   92.3653   10.7680 C.ar    1  UNL1        0.0116
     12 C          65.2677   92.7471   12.1197 C.ar    1  UNL1        0.0592
     13 CL         66.1053   93.9815   12.2772 Cl      1  UNL1       -0.0822
     14 C          64.9565   91.8945   13.3140 C.ar    1  UNL1        0.0324
     15 C          64.1189   90.6601   13.1565 C.ar    1  UNL1        0.1081
     16 N          63.8078   89.8076   14.3508 N.ar    1  UNL1       -0.1476
     17 N          64.5046   88.5349   14.7313 N.ar    1  UNL1       -0.1447
     18 C          63.8726   88.0187   15.9899 C.ar    1  UNL1        0.1446
     19 C          62.7852   88.9724   16.3874 C.ar    1  UNL1        0.1446
     20 N          62.7451   90.0779   15.3743 N.ar    1  UNL1       -0.1447
     21 C          61.0799   86.5751   11.3324 C.3     1  UNL1        0.0488
     22 C          61.9653   85.4365   10.9209 C.ar    1  UNL1       -0.0189
     23 C          62.6815   85.4815    9.6037 C.ar    1  UNL1       -0.0041
     24 C          63.5669   84.3428    9.1921 C.ar    1  UNL1        0.0013
     25 C          63.7362   83.1591   10.0977 C.ar    1  UNL1        0.0209
     26 C          63.0200   83.1141   11.4150 C.ar    1  UNL1        0.1026
     27 C          62.1346   84.2527   11.8265 C.ar    1  UNL1        0.0167
     28 N          63.1893   81.9304   12.3206 N.ar    1  UNL1       -0.1478
     29 N          62.4659   80.6215   12.2054 N.ar    1  UNL1       -0.1447
     30 C          62.9412   79.7299   13.3141 C.ar    1  UNL1        0.1446
     31 C          63.9585   80.4878   14.1145 C.ar    1  UNL1        0.1446
     32 N          64.1119   81.8478   13.5006 N.ar    1  UNL1       -0.1447
@<TRIPOS>BOND
     1     1     2    2
     2     2     9    1
     3     9    10   ar
     4    10    11   ar
     5    11    12   ar
     6    12    13    1
     7    12    14   ar
     8    14    15   ar
     9    15    16    1
    10    16    17   ar
    11    17    18   ar
    12    18    19   ar
    13    19    20   ar
    14     2     3   am
    15     3     4    1
    16     4     5    1
    17     5     6    1
    18     6     7    1
    19     7     8    1
    20     8    21    1
    21    21    22    1
    22    22    23   ar
    23    23    24   ar
    24    24    25   ar
    25    25    26   ar
    26    26    28    1
    27    28    29   ar
    28    29    30   ar
    29    30    31   ar
    30    31    32   ar
    31    26    27   ar
    32    15     9   ar
    33    20    16   ar
    34     8     3    1
    35    27    22   ar
    36    32    28   ar
@<TRIPOS>MOLECULE
*****
 32 36 0 0 0
SMALL
GASTEIGER

@<TRIPOS>ATOM
      1 O          63.4508   88.1480   11.8401 O.2     1  UNL1       -0.2699
      2 C          63.4572   87.4859   13.1861 C.2     1  UNL1        0.2506
      3 N          63.3646   88.3171   14.4312 N.am    1  UNL1       -0.2723
      4 C          63.3709   87.6550   15.7772 C.3     1  UNL1        0.1257
      5 C          63.2783   88.4863   17.0224 C.3     1  UNL1        0.1637
      6 O          63.1793   89.9796   16.9216 O.3     1  UNL1       -0.3502
      7 C          63.1730   90.6417   15.5756 C.3     1  UNL1        0.1622
      8 C          63.2656   89.8105   14.3305 C.3     1  UNL1        0.1096
      9 C          63.5562   85.9925   13.2868 C.ar    1  UNL1        0.0730
     10 C          64.3348   85.3663   14.4055 C.ar    1  UNL1        0.0070
     11 C          64.4337   83.8730   14.5063 C.ar    1  UNL1        0.0116
     12 C          63.7541   83.0059   13.4884 C.ar    1  UNL1        0.0592
     13 CL         63.8531   81.5126   13.5891 Cl      1  UNL1       -0.0822
     14 C          62.9755   83.6322   12.3696 C.ar    1  UNL1        0.0324
     15 C          62.8766   85.1255   12.2688 C.ar    1  UNL1        0.1081
     16 N          62.0980   85.7517   11.1501 N.ar    1  UNL1       -0.1476
     17 N          60.8772   86.6107   11.2983 N.ar    1  UNL1       -0.1447
     18 C          60.4282   87.0188    9.9265 C.ar    1  UNL1        0.1446
     19 C          61.3714   86.4121    8.9304 C.ar    1  UNL1        0.1446
     20 N          62.4034   85.6290    9.6867 N.ar    1  UNL1       -0.1447
     21 C          63.2593   90.4726   12.9845 C.3     1  UNL1        0.0488
     22 C          64.4001   91.3580   12.5788 C.ar    1  UNL1       -0.0189
     23 C          64.4720   91.8950   11.1801 C.ar    1  UNL1       -0.0041
     24 C          65.6128   92.7804   10.7743 C.ar    1  UNL1        0.0013
     25 C          66.6818   93.1287   11.7673 C.ar    1  UNL1        0.0209
     26 C          66.6099   92.5916   13.1661 C.ar    1  UNL1        0.1026
     27 C          65.4690   91.7063   13.5718 C.ar    1  UNL1        0.0167
     28 N          67.6788   92.9399   14.1591 N.ar    1  UNL1       -0.1478
     29 N          69.0969   92.4515   14.1357 N.ar    1  UNL1       -0.1447
     30 C          69.8119   93.0475   15.3120 C.ar    1  UNL1        0.1446
     31 C          68.8357   93.9043   16.0623 C.ar    1  UNL1        0.1446
     32 N          67.5174   93.8378   15.3498 N.ar    1  UNL1       -0.1447
@<TRIPOS>BOND
     1     1     2    2
     2     2     9    1
     3     9    10   ar
     4    10    11   ar
     5    11    12   ar
     6    12    13    1
     7    12    14   ar
     8    14    15   ar
     9    15    16    1
    10    16    17   ar
    11    17    18   ar
    12    18    19   ar
    13    19    20   ar
    14     2     3   am
    15     3     4    1
    16     4     5    1
    17     5     6    1
    18     6     7    1
    19     7     8    1
    20     8    21    1
    21    21    22    1
    22    22    23   ar
    23    23    24   ar
    24    24    25   ar
    25    25    26   ar
    26    26    28    1
    27    28    29   ar
    28    29    30   ar
    29    30    31   ar
    30    31    32   ar
    31    26    27   ar
    32    15     9   ar
    33    20    16   ar
    34     8     3    1
    35    27    22   ar
    36    32    28   ar
@<TRIPOS>MOLECULE
*****
 32 36 0 0 0
SMALL
GASTEIGER

@<TRIPOS>ATOM
      1 O          65.8188   90.8682   13.9454 O.2     1  UNL1       -0.2699
      2 C          65.0510   91.3124   12.7358 C.2     1  UNL1        0.2506
      3 N          63.9342   90.4644   12.2032 N.am    1  UNL1       -0.2723
      4 C          63.1664   90.9085   10.9936 C.3     1  UNL1        0.1257
      5 C          62.0495   90.0605   10.4611 C.3     1  UNL1        0.1637
      6 O          61.7005   88.7683   11.1382 O.3     1  UNL1       -0.3502
      7 C          62.4683   88.3242   12.3479 C.3     1  UNL1        0.1622
      8 C          63.5851   89.1721   12.8804 C.3     1  UNL1        0.1096
      9 C          65.4000   92.6046   12.0586 C.ar    1  UNL1        0.0730
     10 C          64.8343   92.9189   10.7054 C.ar    1  UNL1        0.0070
     11 C          65.1833   94.2111   10.0283 C.ar    1  UNL1        0.0116
     12 C          66.0980   95.1889   10.7044 C.ar    1  UNL1        0.0592
     13 CL         66.4470   96.4811   10.0273 Cl      1  UNL1       -0.0822
     14 C          66.6637   94.8745   12.0576 C.ar    1  UNL1        0.0324
     15 C          66.3147   93.5824   12.7347 C.ar    1  UNL1        0.1081
     16 N          66.8805   93.2681   14.0879 N.ar    1  UNL1       -0.1476
     17 N          68.3109   92.9316   14.3891 N.ar    1  UNL1       -0.1447
     18 C          68.4296   92.6906   15.8649 C.ar    1  UNL1        0.1446
     19 C          67.0725   92.8781   16.4758 C.ar    1  UNL1        0.1446
     20 N          66.1151   93.2349   15.3776 N.ar    1  UNL1       -0.1447
     21 C          64.3530   88.7280   14.0900 C.3     1  UNL1        0.0488
     22 C          63.9566   87.4739   14.8112 C.ar    1  UNL1       -0.0189
     23 C          63.4606   87.5467   16.2249 C.ar    1  UNL1       -0.0041
     24 C          63.0641   86.2926   16.9461 C.ar    1  UNL1        0.0013
     25 C          63.1638   84.9657   16.2536 C.ar    1  UNL1        0.0209
     26 C          63.6599   84.8930   14.8398 C.ar    1  UNL1        0.1026
     27 C          64.0562   86.1471   14.1186 C.ar    1  UNL1        0.0167
     28 N          63.7595   83.5662   14.1473 N.ar    1  UNL1       -0.1478
     29 N          64.3348   83.3246   12.7832 N.ar    1  UNL1       -0.1447
     30 C          64.2322   81.8571   12.4901 C.ar    1  UNL1        0.1446
     31 C          63.5935   81.1917   13.6730 C.ar    1  UNL1        0.1446
     32 N          63.3013   82.2479   14.6972 N.ar    1  UNL1       -0.1447
@<TRIPOS>BOND
     1     1     2    2
     2     2     9    1
     3     9    10   ar
     4    10    11   ar
     5    11    12   ar
     6    12    13    1
     7    12    14   ar
     8    14    15   ar
     9    15    16    1
    10    16    17   ar
    11    17    18   ar
    12    18    19   ar
    13    19    20   ar
    14     2     3   am
    15     3     4    1
    16     4     5    1
    17     5     6    1
    18     6     7    1
    19     7     8    1
    20     8    21    1
    21    21    22    1
    22    22    23   ar
    23    23    24   ar
    24    24    25   ar
    25    25    26   ar
    26    26    28    1
    27    28    29   ar
    28    29    30   ar
    29    30    31   ar
    30    31    32   ar
    31    26    27   ar
    32    15     9   ar
    33    20    16   ar
    34     8     3    1
    35    27    22   ar
    36    32    28   ar
@<TRIPOS>MOLECULE
*****
 32 36 0 0 0
SMALL
GASTEIGER

@<TRIPOS>ATOM
      1 O          60.7157   86.8391   11.6901 O.2     1  UNL1       -0.2699
      2 C          61.0904   86.6676   10.2478 C.2     1  UNL1        0.2506
      3 N          62.0911   85.6227    9.8521 N.am    1  UNL1       -0.2723
      4 C          62.4658   85.4512    8.4098 C.3     1  UNL1        0.1257
      5 C          63.4666   84.4062    8.0141 C.3     1  UNL1        0.1637
      6 O          64.0926   83.5328    9.0606 O.3     1  UNL1       -0.3502
      7 C          63.7179   83.7044   10.5029 C.3     1  UNL1        0.1622
      8 C          62.7172   84.7493   10.8987 C.3     1  UNL1        0.1096
      9 C          60.4643   87.5410    9.2013 C.ar    1  UNL1        0.0730
     10 C          59.6051   86.9328    8.1327 C.ar    1  UNL1        0.0070
     11 C          58.9790   87.8061    7.0862 C.ar    1  UNL1        0.0116
     12 C          59.2122   89.2877    7.1082 C.ar    1  UNL1        0.0592
     13 CL         58.5861   90.1612    6.0617 Cl      1  UNL1       -0.0822
     14 C          60.0713   89.8960    8.1768 C.ar    1  UNL1        0.0324
     15 C          60.6974   89.0226    9.2233 C.ar    1  UNL1        0.1081
     16 N          61.5566   89.6308   10.2919 N.ar    1  UNL1       -0.1476
     17 N          62.9512   90.1527   10.1112 N.ar    1  UNL1       -0.1447
     18 C          63.4286   90.6684   11.4364 C.ar    1  UNL1        0.1446
     19 C          62.3290   90.4653   12.4362 C.ar    1  UNL1        0.1446
     20 N          61.1721   89.8240   11.7288 N.ar    1  UNL1       -0.1447
     21 C          62.3425   84.9208   12.3409 C.3     1  UNL1        0.0488
     22 C          63.3475   85.4535   13.3187 C.ar    1  UNL1       -0.0189
     23 C          64.3501   84.5286   13.9426 C.ar    1  UNL1       -0.0041
     24 C          65.3552   85.0613   14.9204 C.ar    1  UNL1        0.0013
     25 C          65.3577   86.5189   15.2743 C.ar    1  UNL1        0.0209
     26 C          64.3550   87.4439   14.6504 C.ar    1  UNL1        0.1026
     27 C          63.3500   86.9112   13.6726 C.ar    1  UNL1        0.0167
     28 N          64.3575   88.9015   15.0042 N.ar    1  UNL1       -0.1478
     29 N          65.2708   89.9458   14.4339 N.ar    1  UNL1       -0.1447
     30 C          64.9249   91.2605   15.0678 C.ar    1  UNL1        0.1446
     31 C          63.7977   91.0288   16.0299 C.ar    1  UNL1        0.1446
     32 N          63.4469   89.5709   15.9907 N.ar    1  UNL1       -0.1447
@<TRIPOS>BOND
     1     1     2    2
     2     2     9    1
     3     9    10   ar
     4    10    11   ar
     5    11    12   ar
     6    12    13    1
     7    12    14   ar
     8    14    15   ar
     9    15    16    1
    10    16    17   ar
    11    17    18   ar
    12    18    19   ar
    13    19    20   ar
    14     2     3   am
    15     3     4    1
    16     4     5    1
    17     5     6    1
    18     6     7    1
    19     7     8    1
    20     8    21    1
    21    21    22    1
    22    22    23   ar
    23    23    24   ar
    24    24    25   ar
    25    25    26   ar
    26    26    28    1
    27    28    29   ar
    28    29    30   ar
    29    30    31   ar
    30    31    32   ar
    31    26    27   ar
    32    15     9   ar
    33    20    16   ar
    34     8     3    1
    35    27    22   ar
    36    32    28   ar
