@<TRIPOS>MOLECULE
*****
 25 27 0 0 0
SMALL
GASTEIGER

@<TRIPOS>ATOM
      1 C          63.5409   91.4398   10.0409 C.3     1  UNL1        0.0497
      2 C          64.2658   91.7768   11.3101 C.ar    1  UNL1        0.0355
      3 C          65.4283   92.7159   11.4388 C.ar    1  UNL1       -0.0020
      4 C          65.8365   92.7534   12.8817 C.ar    1  UNL1        0.0317
      5 C          66.9194   93.5033   13.5992 C.ar    1  UNL1        0.0043
      6 C          67.0921   93.3372   15.0799 C.ar    1  UNL1        0.0208
      7 C          66.1819   92.4212   15.8431 C.ar    1  UNL1        0.1005
      8 N          65.0989   91.6713   15.1255 N.ar    1  UNL1       -0.2268
      9 C          64.9263   91.8374   13.6448 C.ar    1  UNL1        0.1435
     10 N          63.9555   91.2339   12.6735 N.ar    1  UNL1       -0.3125
     11 C          66.0700   93.4830   10.3208 C.3     1  UNL1        0.0692
     12 C          67.4827   93.1798    9.9173 C.2     1  UNL1        0.0548
     13 O          68.4219   94.2986    9.5766 O.co2   1  UNL1       -0.5488
     14 O          67.9560   91.7578    9.8546 O.co2   1  UNL1       -0.5488
     15 C          62.8658   90.2586   13.0072 C.3     1  UNL1        0.1338
     16 C          62.1376   89.5428   11.9084 C.ar    1  UNL1        0.0005
     17 C          60.8643   90.1128   11.3571 C.ar    1  UNL1       -0.0011
     18 C          60.1360   89.3971   10.2584 C.ar    1  UNL1        0.0181
     19 C          60.6810   88.1113    9.7108 C.ar    1  UNL1        0.1057
     20 C          61.9542   87.5413   10.2621 C.ar    1  UNL1        0.0181
     21 C          62.6825   88.2570   11.3609 C.ar    1  UNL1       -0.0011
     22 S          59.9527   87.3956    8.6121 S.O2    1  UNL1        0.0104
     23 C          59.2244   86.6799    7.5133 C.3     1  UNL1        0.1816
     24 O          60.4673   86.0836    9.1256 O.2     1  UNL1       -0.1686
     25 O          59.4380   88.7077    8.0985 O.2     1  UNL1       -0.1686
@<TRIPOS>UNITY_ATOM_ATTR
13 1
charge -1
@<TRIPOS>BOND
     1     1     2    1
     2     2     3   ar
     3     3    11    1
     4    11    12    1
     5    12    13   ar
     6    12    14   ar
     7     3     4   ar
     8     4     5   ar
     9     5     6   ar
    10     6     7   ar
    11     7     8   ar
    12     8     9   ar
    13     9    10   ar
    14    10    15    1
    15    15    16    1
    16    16    17   ar
    17    17    18   ar
    18    18    19   ar
    19    19    22    1
    20    22    23    1
    21    22    24    2
    22    22    25    2
    23    19    20   ar
    24    20    21   ar
    25    10     2   ar
    26    21    16   ar
    27     9     4   ar
@<TRIPOS>MOLECULE
*****
 25 27 0 0 0
SMALL
GASTEIGER

@<TRIPOS>ATOM
      1 C          61.1937   89.3944    9.2999 C.3     1  UNL1        0.0497
      2 C          61.7547   88.2556   10.0989 C.ar    1  UNL1        0.0355
      3 C          61.9946   86.8618    9.5993 C.ar    1  UNL1       -0.0020
      4 C          62.5624   86.0554   10.7295 C.ar    1  UNL1        0.0317
      5 C          62.9927   84.6215   10.8223 C.ar    1  UNL1        0.0043
      6 C          63.5340   84.0830   12.1134 C.ar    1  UNL1        0.0208
      7 C          63.6450   84.9785   13.3117 C.ar    1  UNL1        0.1005
      8 N          63.2148   86.4124   13.2188 N.ar    1  UNL1       -0.2268
      9 C          62.6734   86.9509   11.9277 C.ar    1  UNL1        0.1435
     10 N          62.1743   88.3107   11.5380 N.ar    1  UNL1       -0.3125
     11 C          61.7156   86.3620    8.2127 C.3     1  UNL1        0.0692
     12 C          60.3176   85.9887    7.8171 C.2     1  UNL1        0.0548
     13 O          60.0879   84.8919    6.8201 O.co2   1  UNL1       -0.5488
     14 O          59.1494   86.7124    8.4186 O.co2   1  UNL1       -0.5488
     15 C          62.1065   89.5142   12.4307 C.3     1  UNL1        0.1338
     16 C          63.3702   90.1693   12.9037 C.ar    1  UNL1        0.0005
     17 C          64.0363   89.6941   14.1610 C.ar    1  UNL1       -0.0011
     18 C          65.3000   90.3492   14.6340 C.ar    1  UNL1        0.0181
     19 C          65.8978   91.4795   13.8497 C.ar    1  UNL1        0.1057
     20 C          65.2318   91.9547   12.5925 C.ar    1  UNL1        0.0181
     21 C          63.9681   91.2996   12.1195 C.ar    1  UNL1       -0.0011
     22 S          67.1616   92.1346   14.3228 S.O2    1  UNL1        0.0104
     23 C          68.4253   92.7897   14.7958 C.3     1  UNL1        0.1816
     24 O          66.5815   92.2589   15.7004 O.2     1  UNL1       -0.1686
     25 O          67.7418   92.0103   12.9450 O.2     1  UNL1       -0.1686
@<TRIPOS>UNITY_ATOM_ATTR
13 1
charge -1
@<TRIPOS>BOND
     1     1     2    1
     2     2     3   ar
     3     3    11    1
     4    11    12    1
     5    12    13   ar
     6    12    14   ar
     7     3     4   ar
     8     4     5   ar
     9     5     6   ar
    10     6     7   ar
    11     7     8   ar
    12     8     9   ar
    13     9    10   ar
    14    10    15    1
    15    15    16    1
    16    16    17   ar
    17    17    18   ar
    18    18    19   ar
    19    19    22    1
    20    22    23    1
    21    22    24    2
    22    22    25    2
    23    19    20   ar
    24    20    21   ar
    25    10     2   ar
    26    21    16   ar
    27     9     4   ar
@<TRIPOS>MOLECULE
*****
 25 27 0 0 0
SMALL
GASTEIGER

@<TRIPOS>ATOM
      1 C          59.8562   88.9667    7.9412 C.3     1  UNL1        0.0497
      2 C          60.6152   88.1369    8.9338 C.ar    1  UNL1        0.0355
      3 C          60.8719   86.6622    8.8371 C.ar    1  UNL1       -0.0020
      4 C          61.6662   86.2499   10.0409 C.ar    1  UNL1        0.0317
      5 C          62.2064   84.9213   10.4801 C.ar    1  UNL1        0.0043
      6 C          62.9809   84.8127   11.7600 C.ar    1  UNL1        0.0208
      7 C          63.2152   86.0326   12.6008 C.ar    1  UNL1        0.1005
      8 N          62.6750   87.3612   12.1616 N.ar    1  UNL1       -0.2268
      9 C          61.9005   87.4699   10.8816 C.ar    1  UNL1        0.1435
     10 N          61.2510   88.6361   10.1974 N.ar    1  UNL1       -0.3125
     11 C          60.4145   85.7584    7.7308 C.3     1  UNL1        0.0692
     12 C          61.4195   84.9803    6.9341 C.2     1  UNL1        0.0548
     13 O          60.9708   84.1446    5.7721 O.co2   1  UNL1       -0.5488
     14 O          62.8732   85.0379    7.2994 O.co2   1  UNL1       -0.5488
     15 C          61.2392   90.0527   10.6903 C.3     1  UNL1        0.1338
     16 C          62.4639   90.6336   11.3326 C.ar    1  UNL1        0.0005
     17 C          63.4535   91.3990   10.5049 C.ar    1  UNL1       -0.0011
     18 C          64.6783   91.9799   11.1471 C.ar    1  UNL1        0.0181
     19 C          64.9135   91.7954   12.6171 C.ar    1  UNL1        0.1057
     20 C          63.9240   91.0300   13.4447 C.ar    1  UNL1        0.0181
     21 C          62.6992   90.4491   12.8025 C.ar    1  UNL1       -0.0011
     22 S          66.1383   92.3763   13.2593 S.O2    1  UNL1        0.0104
     23 C          67.3631   92.9572   13.9015 C.3     1  UNL1        0.1816
     24 O          66.8494   92.3365   11.9391 O.2     1  UNL1       -0.1686
     25 O          65.4273   92.4161   14.5795 O.2     1  UNL1       -0.1686
@<TRIPOS>UNITY_ATOM_ATTR
13 1
charge -1
@<TRIPOS>BOND
     1     1     2    1
     2     2     3   ar
     3     3    11    1
     4    11    12    1
     5    12    13   ar
     6    12    14   ar
     7     3     4   ar
     8     4     5   ar
     9     5     6   ar
    10     6     7   ar
    11     7     8   ar
    12     8     9   ar
    13     9    10   ar
    14    10    15    1
    15    15    16    1
    16    16    17   ar
    17    17    18   ar
    18    18    19   ar
    19    19    22    1
    20    22    23    1
    21    22    24    2
    22    22    25    2
    23    19    20   ar
    24    20    21   ar
    25    10     2   ar
    26    21    16   ar
    27     9     4   ar
@<TRIPOS>MOLECULE
*****
 25 27 0 0 0
SMALL
GASTEIGER

@<TRIPOS>ATOM
      1 C          64.4306   87.5230   14.8593 C.3     1  UNL1        0.0497
      2 C          63.6700   87.3991   13.5724 C.ar    1  UNL1        0.0355
      3 C          63.4036   86.1264   12.8246 C.ar    1  UNL1       -0.0020
      4 C          62.6111   86.4669   11.5974 C.ar    1  UNL1        0.0317
      5 C          62.0641   85.6181   10.4883 C.ar    1  UNL1        0.0043
      6 C          61.2936   86.2525    9.3686 C.ar    1  UNL1        0.0208
      7 C          61.0702   87.7357    9.3579 C.ar    1  UNL1        0.1005
      8 N          61.6172   88.5845   10.4670 N.ar    1  UNL1       -0.2268
      9 C          62.3877   87.9502   11.5868 C.ar    1  UNL1        0.1435
     10 N          63.0421   88.5263   12.8074 N.ar    1  UNL1       -0.3125
     11 C          63.8512   84.7540   13.2324 C.3     1  UNL1        0.0692
     12 C          63.1800   84.0557   14.3779 C.2     1  UNL1        0.0548
     13 O          63.7452   82.7715   14.9083 O.co2   1  UNL1       -0.5488
     14 O          61.9437   84.6417   14.9929 O.co2   1  UNL1       -0.5488
     15 C          63.0646   89.9752   13.1949 C.3     1  UNL1        0.1338
     16 C          63.9736   90.9292   12.4784 C.ar    1  UNL1        0.0005
     17 C          63.7080   91.2855   11.0457 C.ar    1  UNL1       -0.0011
     18 C          64.6170   92.2395   10.3291 C.ar    1  UNL1        0.0181
     19 C          65.7917   92.8372   11.0453 C.ar    1  UNL1        0.1057
     20 C          66.0574   92.4809   12.4779 C.ar    1  UNL1        0.0181
     21 C          65.1483   91.5269   13.1945 C.ar    1  UNL1       -0.0011
     22 S          66.7008   93.7913   10.3287 S.O2    1  UNL1        0.0104
     23 C          67.6098   94.7453    9.6121 C.3     1  UNL1        0.1816
     24 O          65.6009   94.8105   10.2904 O.2     1  UNL1       -0.1686
     25 O          67.8007   92.7720   10.3668 O.2     1  UNL1       -0.1686
@<TRIPOS>UNITY_ATOM_ATTR
13 1
charge -1
@<TRIPOS>BOND
     1     1     2    1
     2     2     3   ar
     3     3    11    1
     4    11    12    1
     5    12    13   ar
     6    12    14   ar
     7     3     4   ar
     8     4     5   ar
     9     5     6   ar
    10     6     7   ar
    11     7     8   ar
    12     8     9   ar
    13     9    10   ar
    14    10    15    1
    15    15    16    1
    16    16    17   ar
    17    17    18   ar
    18    18    19   ar
    19    19    22    1
    20    22    23    1
    21    22    24    2
    22    22    25    2
    23    19    20   ar
    24    20    21   ar
    25    10     2   ar
    26    21    16   ar
    27     9     4   ar
@<TRIPOS>MOLECULE
*****
 25 27 0 0 0
SMALL
GASTEIGER

@<TRIPOS>ATOM
      1 C          61.1589   89.1367    9.6538 C.3     1  UNL1        0.0497
      2 C          61.8933   88.4248   10.7510 C.ar    1  UNL1        0.0355
      3 C          62.0093   86.9382   10.9141 C.ar    1  UNL1       -0.0020
      4 C          62.8283   86.6690   12.1416 C.ar    1  UNL1        0.0317
      5 C          63.2692   85.3924   12.7940 C.ar    1  UNL1        0.0043
      6 C          64.1002   85.4359   14.0419 C.ar    1  UNL1        0.0208
      7 C          64.4904   86.7562   14.6375 C.ar    1  UNL1        0.1005
      8 N          64.0495   88.0329   13.9851 N.ar    1  UNL1       -0.2268
      9 C          63.2184   87.9893   12.7372 C.ar    1  UNL1        0.1435
     10 N          62.6405   89.0744   11.8777 N.ar    1  UNL1       -0.3125
     11 C          61.4114   85.9025   10.0086 C.3     1  UNL1        0.0692
     12 C          61.8796   85.7878    8.5881 C.2     1  UNL1        0.0548
     13 O          63.3295   85.5407    8.2939 O.co2   1  UNL1       -0.5488
     14 O          60.8977   85.9203    7.4618 O.co2   1  UNL1       -0.5488
     15 C          62.7846   90.5500   12.1051 C.3     1  UNL1        0.1338
     16 C          63.9817   91.0831   12.8350 C.ar    1  UNL1        0.0005
     17 C          64.0802   90.9332   14.3243 C.ar    1  UNL1       -0.0011
     18 C          65.2773   91.4663   15.0542 C.ar    1  UNL1        0.0181
     19 C          66.3759   92.1492   14.2949 C.ar    1  UNL1        0.1057
     20 C          66.2775   92.2990   12.8057 C.ar    1  UNL1        0.0181
     21 C          65.0804   91.7660   12.0757 C.ar    1  UNL1       -0.0011
     22 S          67.5730   92.6822   15.0248 S.O2    1  UNL1        0.0104
     23 C          68.7701   93.2152   15.7548 C.3     1  UNL1        0.1816
     24 O          66.7477   92.8330   16.2683 O.2     1  UNL1       -0.1686
     25 O          68.3985   92.5315   13.7814 O.2     1  UNL1       -0.1686
@<TRIPOS>UNITY_ATOM_ATTR
13 1
charge -1
@<TRIPOS>BOND
     1     1     2    1
     2     2     3   ar
     3     3    11    1
     4    11    12    1
     5    12    13   ar
     6    12    14   ar
     7     3     4   ar
     8     4     5   ar
     9     5     6   ar
    10     6     7   ar
    11     7     8   ar
    12     8     9   ar
    13     9    10   ar
    14    10    15    1
    15    15    16    1
    16    16    17   ar
    17    17    18   ar
    18    18    19   ar
    19    19    22    1
    20    22    23    1
    21    22    24    2
    22    22    25    2
    23    19    20   ar
    24    20    21   ar
    25    10     2   ar
    26    21    16   ar
    27     9     4   ar
@<TRIPOS>MOLECULE
*****
 25 27 0 0 0
SMALL
GASTEIGER

@<TRIPOS>ATOM
      1 C          60.5421   89.3831    9.8319 C.3     1  UNL1        0.0497
      2 C          61.2632   88.2789   10.5465 C.ar    1  UNL1        0.0355
      3 C          61.3018   86.8379   10.1317 C.ar    1  UNL1       -0.0020
      4 C          62.1348   86.0902   11.1302 C.ar    1  UNL1        0.0317
      5 C          62.5211   84.6445   11.2331 C.ar    1  UNL1        0.0043
      6 C          63.3837   84.1776   12.3679 C.ar    1  UNL1        0.0208
      7 C          63.8599   85.1565   13.3999 C.ar    1  UNL1        0.1005
      8 N          63.4736   86.6022   13.2971 N.ar    1  UNL1       -0.2268
      9 C          62.6110   87.0691   12.1622 C.ar    1  UNL1        0.1435
     10 N          62.0724   88.4217   11.8015 N.ar    1  UNL1       -0.3125
     11 C          60.6260   86.2482    8.9294 C.3     1  UNL1        0.0692
     12 C          61.4435   85.5941    7.8550 C.2     1  UNL1        0.0548
     13 O          62.9320   85.4868    8.0058 O.co2   1  UNL1       -0.5488
     14 O          60.7723   85.0473    6.6301 O.co2   1  UNL1       -0.5488
     15 C          62.3025   89.6939   12.5621 C.3     1  UNL1        0.1338
     16 C          63.3253   90.6804   12.0820 C.ar    1  UNL1        0.0005
     17 C          63.3185   91.1315   10.6514 C.ar    1  UNL1       -0.0011
     18 C          64.3413   92.1180   10.1711 C.ar    1  UNL1        0.0181
     19 C          65.3710   92.6534   11.1215 C.ar    1  UNL1        0.1057
     20 C          65.3777   92.2024   12.5520 C.ar    1  UNL1        0.0181
     21 C          64.3549   91.2159   13.0323 C.ar    1  UNL1       -0.0011
     22 S          66.3938   93.6399   10.6412 S.O2    1  UNL1        0.0104
     23 C          67.4166   94.6264   10.1610 C.3     1  UNL1        0.1816
     24 O          67.4799   92.6366   10.8933 O.2     1  UNL1       -0.1686
     25 O          65.3076   94.6434   10.3891 O.2     1  UNL1       -0.1686
@<TRIPOS>UNITY_ATOM_ATTR
13 1
charge -1
@<TRIPOS>BOND
     1     1     2    1
     2     2     3   ar
     3     3    11    1
     4    11    12    1
     5    12    13   ar
     6    12    14   ar
     7     3     4   ar
     8     4     5   ar
     9     5     6   ar
    10     6     7   ar
    11     7     8   ar
    12     8     9   ar
    13     9    10   ar
    14    10    15    1
    15    15    16    1
    16    16    17   ar
    17    17    18   ar
    18    18    19   ar
    19    19    22    1
    20    22    23    1
    21    22    24    2
    22    22    25    2
    23    19    20   ar
    24    20    21   ar
    25    10     2   ar
    26    21    16   ar
    27     9     4   ar
@<TRIPOS>MOLECULE
*****
 25 27 0 0 0
SMALL
GASTEIGER

@<TRIPOS>ATOM
      1 C          63.8544   91.5275   10.3635 C.3     1  UNL1        0.0497
      2 C          64.5754   91.8650   11.6348 C.ar    1  UNL1        0.0355
      3 C          65.7642   92.7711   11.7604 C.ar    1  UNL1       -0.0020
      4 C          66.1578   92.8217   13.2069 C.ar    1  UNL1        0.0317
      5 C          67.2550   93.5513   13.9236 C.ar    1  UNL1        0.0043
      6 C          67.4066   93.4061   15.4088 C.ar    1  UNL1        0.0208
      7 C          66.4611   92.5313   16.1773 C.ar    1  UNL1        0.1005
      8 N          65.3639   91.8016   15.4606 N.ar    1  UNL1       -0.2268
      9 C          65.2122   91.9468   13.9754 C.ar    1  UNL1        0.1435
     10 N          64.2343   91.3556   13.0038 N.ar    1  UNL1       -0.3125
     11 C          66.4407   93.4988   10.6366 C.3     1  UNL1        0.0692
     12 C          67.6840   92.9325   10.0172 C.2     1  UNL1        0.0548
     13 O          68.0509   93.2926    8.6081 O.co2   1  UNL1       -0.5488
     14 O          68.5605   92.0062   10.8070 O.co2   1  UNL1       -0.5488
     15 C          63.1122   90.4193   13.3419 C.3     1  UNL1        0.1338
     16 C          63.3529   88.9391   13.3693 C.ar    1  UNL1        0.0005
     17 C          64.1348   88.3271   14.4938 C.ar    1  UNL1       -0.0011
     18 C          64.3756   86.8468   14.5213 C.ar    1  UNL1        0.0181
     19 C          63.8345   85.9784   13.4244 C.ar    1  UNL1        0.1057
     20 C          63.0527   86.5904   12.3000 C.ar    1  UNL1        0.0181
     21 C          62.8119   88.0707   12.2725 C.ar    1  UNL1       -0.0011
     22 S          64.0753   84.4982   13.4519 S.O2    1  UNL1        0.0104
     23 C          64.3161   83.0179   13.4795 C.3     1  UNL1        0.1816
     24 O          63.0081   84.3053   12.4156 O.2     1  UNL1       -0.1686
     25 O          65.1425   84.6910   14.4883 O.2     1  UNL1       -0.1686
@<TRIPOS>UNITY_ATOM_ATTR
13 1
charge -1
@<TRIPOS>BOND
     1     1     2    1
     2     2     3   ar
     3     3    11    1
     4    11    12    1
     5    12    13   ar
     6    12    14   ar
     7     3     4   ar
     8     4     5   ar
     9     5     6   ar
    10     6     7   ar
    11     7     8   ar
    12     8     9   ar
    13     9    10   ar
    14    10    15    1
    15    15    16    1
    16    16    17   ar
    17    17    18   ar
    18    18    19   ar
    19    19    22    1
    20    22    23    1
    21    22    24    2
    22    22    25    2
    23    19    20   ar
    24    20    21   ar
    25    10     2   ar
    26    21    16   ar
    27     9     4   ar
@<TRIPOS>MOLECULE
*****
 25 27 0 0 0
SMALL
GASTEIGER

@<TRIPOS>ATOM
      1 C          62.9577   91.1736    9.6961 C.3     1  UNL1        0.0497
      2 C          63.2011   90.9978   11.1658 C.ar    1  UNL1        0.0355
      3 C          64.3318   91.5951   11.9499 C.ar    1  UNL1       -0.0020
      4 C          64.1861   91.1604   13.3781 C.ar    1  UNL1        0.0317
      5 C          65.0072   91.4412   14.6015 C.ar    1  UNL1        0.0043
      6 C          64.6076   90.8560   15.9235 C.ar    1  UNL1        0.0208
      7 C          63.3868   89.9900   16.0221 C.ar    1  UNL1        0.1005
      8 N          62.5656   89.7092   14.7987 N.ar    1  UNL1       -0.2268
      9 C          62.9652   90.2944   13.4767 C.ar    1  UNL1        0.1435
     10 N          62.3565   90.1939   12.1094 N.ar    1  UNL1       -0.3125
     11 C          65.4177   92.4730   11.4019 C.3     1  UNL1        0.0692
     12 C          66.4574   93.0423   12.3213 C.2     1  UNL1        0.0548
     13 O          66.1929   94.3274   13.0484 O.co2   1  UNL1       -0.5488
     14 O          67.7615   92.3265   12.5134 O.co2   1  UNL1       -0.5488
     15 C          61.1203   89.4246   11.7491 C.3     1  UNL1        0.1338
     16 C          61.1695   88.3920   10.6624 C.ar    1  UNL1        0.0005
     17 C          60.2083   88.4661    9.5131 C.ar    1  UNL1       -0.0011
     18 C          60.2576   87.4335    8.4263 C.ar    1  UNL1        0.0181
     19 C          61.2680   86.3266    8.4887 C.ar    1  UNL1        0.1057
     20 C          62.2292   86.2525    9.6378 C.ar    1  UNL1        0.0181
     21 C          62.1800   87.2851   10.7247 C.ar    1  UNL1       -0.0011
     22 S          61.3173   85.2940    7.4019 S.O2    1  UNL1        0.0104
     23 C          61.3665   84.2613    6.3150 C.3     1  UNL1        0.1816
     24 O          59.8607   85.5183    7.1227 O.2     1  UNL1       -0.1686
     25 O          62.7740   85.0696    7.6810 O.2     1  UNL1       -0.1686
@<TRIPOS>UNITY_ATOM_ATTR
13 1
charge -1
@<TRIPOS>BOND
     1     1     2    1
     2     2     3   ar
     3     3    11    1
     4    11    12    1
     5    12    13   ar
     6    12    14   ar
     7     3     4   ar
     8     4     5   ar
     9     5     6   ar
    10     6     7   ar
    11     7     8   ar
    12     8     9   ar
    13     9    10   ar
    14    10    15    1
    15    15    16    1
    16    16    17   ar
    17    17    18   ar
    18    18    19   ar
    19    19    22    1
    20    22    23    1
    21    22    24    2
    22    22    25    2
    23    19    20   ar
    24    20    21   ar
    25    10     2   ar
    26    21    16   ar
    27     9     4   ar
@<TRIPOS>MOLECULE
*****
 25 27 0 0 0
SMALL
GASTEIGER

@<TRIPOS>ATOM
      1 C          66.3018   92.2160   15.0281 C.3     1  UNL1        0.0497
      2 C          65.3135   91.7796   13.9875 C.ar    1  UNL1        0.0355
      3 C          65.2442   92.2765   12.5739 C.ar    1  UNL1       -0.0020
      4 C          64.1088   91.5736   11.8906 C.ar    1  UNL1        0.0317
      5 C          63.5692   91.6614   10.4938 C.ar    1  UNL1        0.0043
      6 C          62.3971   90.8177   10.0883 C.ar    1  UNL1        0.0208
      7 C          61.7647   89.8863   11.0795 C.ar    1  UNL1        0.1005
      8 N          62.3044   89.7986   12.4763 N.ar    1  UNL1       -0.2268
      9 C          63.4764   90.6422   12.8818 C.ar    1  UNL1        0.1435
     10 N          64.2210   90.7695   14.1778 N.ar    1  UNL1       -0.3125
     11 C          66.1510   93.2972   11.9527 C.3     1  UNL1        0.0692
     12 C          67.2265   92.8645   11.0007 C.2     1  UNL1        0.0548
     13 O          68.3486   91.9934   11.4824 O.co2   1  UNL1       -0.5488
     14 O          67.1798   93.3029    9.5669 O.co2   1  UNL1       -0.5488
     15 C          63.9249   90.0186   15.4421 C.3     1  UNL1        0.1338
     16 C          63.8422   88.5210   15.4231 C.ar    1  UNL1        0.0005
     17 C          63.2692   87.7865   16.5988 C.ar    1  UNL1       -0.0011
     18 C          63.1864   86.2890   16.5799 C.ar    1  UNL1        0.0181
     19 C          63.6766   85.5258   15.3852 C.ar    1  UNL1        0.1057
     20 C          64.2496   86.2602   14.2095 C.ar    1  UNL1        0.0181
     21 C          64.3324   87.7578   14.2284 C.ar    1  UNL1       -0.0011
     22 S          63.5938   84.0282   15.3662 S.O2    1  UNL1        0.0104
     23 C          63.5110   82.5306   15.3473 C.3     1  UNL1        0.1816
     24 O          62.3429   84.0869   16.1919 O.2     1  UNL1       -0.1686
     25 O          64.8448   83.9694   14.5405 O.2     1  UNL1       -0.1686
@<TRIPOS>UNITY_ATOM_ATTR
13 1
charge -1
@<TRIPOS>BOND
     1     1     2    1
     2     2     3   ar
     3     3    11    1
     4    11    12    1
     5    12    13   ar
     6    12    14   ar
     7     3     4   ar
     8     4     5   ar
     9     5     6   ar
    10     6     7   ar
    11     7     8   ar
    12     8     9   ar
    13     9    10   ar
    14    10    15    1
    15    15    16    1
    16    16    17   ar
    17    17    18   ar
    18    18    19   ar
    19    19    22    1
    20    22    23    1
    21    22    24    2
    22    22    25    2
    23    19    20   ar
    24    20    21   ar
    25    10     2   ar
    26    21    16   ar
    27     9     4   ar
