@<TRIPOS>MOLECULE
*****
 36 40 0 0 0
SMALL
GASTEIGER

@<TRIPOS>ATOM
      1 C          61.5648   86.3347   10.3922 C.2     1  UNL1        0.1041
      2 N          60.2351   86.1361    9.7269 N.2     1  UNL1       -0.1483
      3 N          59.5959   87.4825    9.5576 N.2     1  UNL1       -0.1520
      4 C          60.5305   88.5132   10.1182 C.2     1  UNL1        0.0864
      5 C          60.4307   90.0060   10.2256 C.3     1  UNL1        0.0749
      6 C          61.5478   90.7893   10.8488 C.2     1  UNL1       -0.0051
      7 C          62.7646   90.0799   11.3647 C.2     1  UNL1        0.0465
      8 C          62.8644   88.5872   11.2573 C.2     1  UNL1        0.0171
      9 C          61.7473   87.8038   10.6340 C.2     1  UNL1        0.0362
     10 C          63.7971   83.8661   12.5540 C.ar    1  UNL1        0.1217
     11 C          64.4921   83.0924   11.4731 C.ar    1  UNL1        0.0199
     12 C          64.2114   83.3994   10.0320 C.ar    1  UNL1        0.0014
     13 C          63.2356   84.4802    9.6717 C.ar    1  UNL1        0.0016
     14 C          62.5406   85.2539   10.7525 C.ar    1  UNL1        0.0208
     15 C          62.8213   84.9469   12.1937 C.ar    1  UNL1        0.0214
     16 N          64.3586   83.2523   15.4363 N.3     1  UNL1       -0.2035
     17 S          64.0778   83.5591   13.9951 S.O2    1  UNL1        0.0572
     18 O          64.2528   85.0229   14.2727 O.2     1  UNL1       -0.1532
     19 O          63.9029   82.0955   13.7175 O.2     1  UNL1       -0.1532
     20 H          64.3101   82.2443   15.5850 H       1  UNL1        0.1442
     21 H          63.6660   83.7164   16.0239 H       1  UNL1        0.1442
     22 N          63.8817   90.8634   11.9880 N.am    1  UNL1       -0.2828
     23 C          64.5283   91.9827   11.2271 C.2     1  UNL1        0.2449
     24 O          64.0579   92.3186    9.8429 O.2     1  UNL1       -0.2730
     25 H          64.1904   90.6430   12.8964 H       1  UNL1        0.1549
     26 C          65.6454   92.7662   11.8503 C.3     1  UNL1        0.1584
     27 C          66.2386   93.9356   11.1221 C.ar    1  UNL1        0.0080
     28 C          66.0852   95.3793   11.4994 C.ar    1  UNL1        0.0050
     29 C          66.8411   96.2027   10.4992 C.ar    1  UNL1        0.0352
     30 S          67.4619   95.2679    9.5036 S.2     1  UNL1       -0.0862
     31 C          67.0895   93.8668    9.8886 C.ar    1  UNL1        0.0330
     32 N          66.1692   92.3801   13.2018 N.3     1  UNL1       -0.2631
     33 C          67.5611   91.9115   13.5071 C.3     1  UNL1        0.0728
     34 C          67.6451   91.6367   14.9794 C.3     1  UNL1        0.0188
     35 C          66.3053   91.9354   15.5840 C.3     1  UNL1        0.0188
     36 C          65.3931   92.3949   14.4854 C.3     1  UNL1        0.0728
@<TRIPOS>BOND
     1    16    17    1
     2    17    18    2
     3    17    19    2
     4    17    10    1
     5    10    11   ar
     6    11    12   ar
     7    12    13   ar
     8    13    14   ar
     9    14     1    1
    10     1     2    2
    11     2     3    1
    12     3     4    2
    13     4     5    1
    14     5     6    1
    15     6     7    2
    16     7    22    1
    17    22    23   am
    18    23    24    2
    19    23    26    1
    20    26    27    1
    21    27    28   ar
    22    28    29   ar
    23    29    30   ar
    24    30    31   ar
    25    26    32    1
    26    32    33    1
    27    33    34    1
    28    34    35    1
    29    35    36    1
    30     7     8    1
    31     8     9    2
    32    14    15   ar
    33    15    10   ar
    34     9     1    1
    35     9     4    1
    36    31    27   ar
    37    36    32    1
    38    16    20    1
    39    16    21    1
    40    22    25    1
@<TRIPOS>MOLECULE
*****
 36 40 0 0 0
SMALL
GASTEIGER

@<TRIPOS>ATOM
      1 C          61.5815   86.3487   10.4318 C.2     1  UNL1        0.1041
      2 N          60.2450   86.1537    9.7791 N.2     1  UNL1       -0.1483
      3 N          59.6097   87.5022    9.6120 N.2     1  UNL1       -0.1520
      4 C          60.5535   88.5305   10.1613 C.2     1  UNL1        0.0864
      5 C          60.4607   90.0240   10.2656 C.3     1  UNL1        0.0749
      6 C          61.5865   90.8045   10.8765 C.2     1  UNL1       -0.0051
      7 C          62.8051   90.0916   11.3832 C.2     1  UNL1        0.0465
      8 C          62.8979   88.5982   11.2789 C.2     1  UNL1        0.0171
      9 C          61.7721   87.8176   10.6679 C.2     1  UNL1        0.0362
     10 C          63.8244   83.8776   12.5797 C.ar    1  UNL1        0.1217
     11 C          64.5056   83.0975   11.4946 C.ar    1  UNL1        0.0199
     12 C          64.2120   83.4010   10.0553 C.ar    1  UNL1        0.0014
     13 C          63.2373   84.4848    9.7010 C.ar    1  UNL1        0.0016
     14 C          62.5562   85.2649   10.7860 C.ar    1  UNL1        0.0208
     15 C          62.8497   84.9614   12.2254 C.ar    1  UNL1        0.0214
     16 N          64.4115   83.2707   15.4584 N.3     1  UNL1       -0.2035
     17 S          64.1179   83.5741   14.0190 S.O2    1  UNL1        0.0572
     18 O          64.3619   85.0317   14.2765 O.2     1  UNL1       -0.1532
     19 O          63.8740   82.1167   13.7615 O.2     1  UNL1       -0.1532
     20 H          64.3216   82.2676   15.6196 H       1  UNL1        0.1442
     21 H          63.7508   83.7712   16.0529 H       1  UNL1        0.1442
     22 N          63.9309   90.8722   11.9941 N.am    1  UNL1       -0.2828
     23 C          64.5691   91.9927   11.2279 C.2     1  UNL1        0.2449
     24 O          64.0816   92.3326    9.8506 O.2     1  UNL1       -0.2730
     25 H          64.2510   90.6491   12.8980 H       1  UNL1        0.1549
     26 C          65.6950   92.7733   11.8388 C.3     1  UNL1        0.1584
     27 C          66.2032   92.4136   13.2034 C.ar    1  UNL1        0.0080
     28 C          67.5628   91.8658   13.5218 C.ar    1  UNL1        0.0050
     29 C          67.6409   91.6521   15.0044 C.ar    1  UNL1        0.0352
     30 S          66.3295   92.0678   15.6024 S.2     1  UNL1       -0.0862
     31 C          65.4410   92.5384   14.4894 C.ar    1  UNL1        0.0330
     32 N          66.3126   93.9137   11.0851 N.3     1  UNL1       -0.2631
     33 C          67.2130   93.7966    9.8911 C.3     1  UNL1        0.0728
     34 C          67.5951   95.1820    9.4611 C.3     1  UNL1        0.0188
     35 C          66.9308   96.1552   10.3893 C.3     1  UNL1        0.0188
     36 C          66.1382   95.3714   11.3929 C.3     1  UNL1        0.0728
@<TRIPOS>BOND
     1    16    17    1
     2    17    18    2
     3    17    19    2
     4    17    10    1
     5    10    11   ar
     6    11    12   ar
     7    12    13   ar
     8    13    14   ar
     9    14     1    1
    10     1     2    2
    11     2     3    1
    12     3     4    2
    13     4     5    1
    14     5     6    1
    15     6     7    2
    16     7    22    1
    17    22    23   am
    18    23    24    2
    19    23    26    1
    20    26    27    1
    21    27    28   ar
    22    28    29   ar
    23    29    30   ar
    24    30    31   ar
    25    26    32    1
    26    32    33    1
    27    33    34    1
    28    34    35    1
    29    35    36    1
    30     7     8    1
    31     8     9    2
    32    14    15   ar
    33    15    10   ar
    34     9     1    1
    35     9     4    1
    36    31    27   ar
    37    36    32    1
    38    16    20    1
    39    16    21    1
    40    22    25    1
@<TRIPOS>MOLECULE
*****
 36 40 0 0 0
SMALL
GASTEIGER

@<TRIPOS>ATOM
      1 C          62.1876   86.5925   11.7386 C.2     1  UNL1        0.1041
      2 N          61.0636   86.1320   10.8584 N.2     1  UNL1       -0.1483
      3 N          60.5703   87.3153   10.0796 N.2     1  UNL1       -0.1520
      4 C          61.3893   88.5070   10.4784 C.2     1  UNL1        0.0864
      5 C          61.3540   89.9412   10.0405 C.3     1  UNL1        0.0749
      6 C          62.3183   90.9286   10.6278 C.2     1  UNL1       -0.0051
      7 C          63.3179   90.4819   11.6532 C.2     1  UNL1        0.0465
      8 C          63.3532   89.0477   12.0911 C.2     1  UNL1        0.0171
      9 C          62.3889   88.0603   11.5038 C.2     1  UNL1        0.0362
     10 C          63.6157   83.3860   13.5904 C.ar    1  UNL1        0.1217
     11 C          64.5423   84.0217   14.5841 C.ar    1  UNL1        0.0199
     12 C          64.6840   85.5143   14.6292 C.ar    1  UNL1        0.0014
     13 C          63.8991   86.3712   13.6807 C.ar    1  UNL1        0.0016
     14 C          62.9725   85.7356   12.6871 C.ar    1  UNL1        0.0208
     15 C          62.8308   84.2429   12.6419 C.ar    1  UNL1        0.0214
     16 N          63.3321   80.4008   13.5001 N.3     1  UNL1       -0.2035
     17 S          63.4739   81.8934   13.5453 S.O2    1  UNL1        0.0572
     18 O          62.8216   81.9145   14.8959 O.2     1  UNL1       -0.1532
     19 O          64.1263   81.8723   12.1947 O.2     1  UNL1       -0.1532
     20 H          63.7182   80.0489   12.6241 H       1  UNL1        0.1442
     21 H          62.3451   80.1511   13.5613 H       1  UNL1        0.1442
     22 N          64.2823   91.4694   12.2405 N.am    1  UNL1       -0.2828
     23 C          65.1761   92.2707   11.3412 C.2     1  UNL1        0.2449
     24 O          65.1056   92.0846    9.8544 O.2     1  UNL1       -0.2730
     25 H          64.3285   91.5916   13.2163 H       1  UNL1        0.1549
     26 C          66.1404   93.2583   11.9285 C.3     1  UNL1        0.1584
     27 C          66.4738   94.5159   11.1821 C.ar    1  UNL1        0.0080
     28 C          67.2638   94.6029    9.9100 C.ar    1  UNL1        0.0050
     29 C          67.3540   96.0481    9.5184 C.ar    1  UNL1        0.0352
     30 S          66.6198   96.8542   10.5485 S.2     1  UNL1       -0.0862
     31 C          66.0758   95.9072   11.5768 C.ar    1  UNL1        0.0330
     32 N          66.7713   92.9881   13.2623 N.3     1  UNL1       -0.2631
     33 C          67.7200   91.8700   13.5787 C.3     1  UNL1        0.0728
     34 C          68.0992   91.9795   15.0259 C.3     1  UNL1        0.0188
     35 C          67.3850   93.1652   15.6039 C.3     1  UNL1        0.0188
     36 C          66.5643   93.7885   14.5139 C.3     1  UNL1        0.0728
@<TRIPOS>BOND
     1    16    17    1
     2    17    18    2
     3    17    19    2
     4    17    10    1
     5    10    11   ar
     6    11    12   ar
     7    12    13   ar
     8    13    14   ar
     9    14     1    1
    10     1     2    2
    11     2     3    1
    12     3     4    2
    13     4     5    1
    14     5     6    1
    15     6     7    2
    16     7    22    1
    17    22    23   am
    18    23    24    2
    19    23    26    1
    20    26    27    1
    21    27    28   ar
    22    28    29   ar
    23    29    30   ar
    24    30    31   ar
    25    26    32    1
    26    32    33    1
    27    33    34    1
    28    34    35    1
    29    35    36    1
    30     7     8    1
    31     8     9    2
    32    14    15   ar
    33    15    10   ar
    34     9     1    1
    35     9     4    1
    36    31    27   ar
    37    36    32    1
    38    16    20    1
    39    16    21    1
    40    22    25    1
@<TRIPOS>MOLECULE
*****
 36 40 0 0 0
SMALL
GASTEIGER

@<TRIPOS>ATOM
      1 C          62.2420   86.5433   11.7847 C.2     1  UNL1        0.1041
      2 N          61.1790   86.0591   10.8437 N.2     1  UNL1       -0.1483
      3 N          60.7194   87.2274   10.0229 N.2     1  UNL1       -0.1520
      4 C          61.4984   88.4337   10.4566 C.2     1  UNL1        0.0864
      5 C          61.4724   89.8625   10.0006 C.3     1  UNL1        0.0749
      6 C          62.3874   90.8684   10.6336 C.2     1  UNL1       -0.0051
      7 C          63.3285   90.4456   11.7225 C.2     1  UNL1        0.0465
      8 C          63.3545   89.0168   12.1784 C.2     1  UNL1        0.0171
      9 C          62.4394   88.0109   11.5454 C.2     1  UNL1        0.0362
     10 C          63.5358   83.3810   13.8038 C.ar    1  UNL1        0.1217
     11 C          64.4512   84.0337   14.7967 C.ar    1  UNL1        0.0199
     12 C          64.6302   85.5230   14.7856 C.ar    1  UNL1        0.0014
     13 C          63.8938   86.3594   13.7816 C.ar    1  UNL1        0.0016
     14 C          62.9784   85.7068   12.7887 C.ar    1  UNL1        0.0208
     15 C          62.7994   84.2175   12.7997 C.ar    1  UNL1        0.0214
     16 N          63.1777   80.4026   13.8257 N.3     1  UNL1       -0.2035
     17 S          63.3567   81.8918   13.8147 S.O2    1  UNL1        0.0572
     18 O          64.3230   81.7673   12.6741 O.2     1  UNL1       -0.1532
     19 O          62.3904   82.0163   14.9553 O.2     1  UNL1       -0.1532
     20 H          62.5176   80.1449   14.5594 H       1  UNL1        0.1442
     21 H          64.0760   79.9534   14.0034 H       1  UNL1        0.1442
     22 N          64.2436   91.4517   12.3554 N.am    1  UNL1       -0.2828
     23 C          65.2419   92.1908   11.5147 C.2     1  UNL1        0.2449
     24 O          65.3252   91.9240   10.0410 O.2     1  UNL1       -0.2730
     25 H          64.1889   91.6268   13.3227 H       1  UNL1        0.1549
     26 C          66.1570   93.1969   12.1477 C.3     1  UNL1        0.1584
     27 C          66.7669   92.9164   13.4890 C.ar    1  UNL1        0.0080
     28 C          68.1155   92.3073   13.7343 C.ar    1  UNL1        0.0050
     29 C          68.3175   92.2102   15.2175 C.ar    1  UNL1        0.0352
     30 S          67.0937   92.7594   15.8889 S.2     1  UNL1       -0.0862
     31 C          66.1354   93.1959   14.8206 C.ar    1  UNL1        0.0330
     32 N          66.4620   94.4834   11.4392 N.3     1  UNL1       -0.2631
     33 C          67.1568   94.6183   10.1166 C.3     1  UNL1        0.0728
     34 C          67.2501   96.0791    9.7890 C.3     1  UNL1        0.0188
     35 C          66.6130   96.8470   10.9090 C.3     1  UNL1        0.0188
     36 C          66.1260   95.8608   11.9289 C.3     1  UNL1        0.0728
@<TRIPOS>BOND
     1    16    17    1
     2    17    18    2
     3    17    19    2
     4    17    10    1
     5    10    11   ar
     6    11    12   ar
     7    12    13   ar
     8    13    14   ar
     9    14     1    1
    10     1     2    2
    11     2     3    1
    12     3     4    2
    13     4     5    1
    14     5     6    1
    15     6     7    2
    16     7    22    1
    17    22    23   am
    18    23    24    2
    19    23    26    1
    20    26    27    1
    21    27    28   ar
    22    28    29   ar
    23    29    30   ar
    24    30    31   ar
    25    26    32    1
    26    32    33    1
    27    33    34    1
    28    34    35    1
    29    35    36    1
    30     7     8    1
    31     8     9    2
    32    14    15   ar
    33    15    10   ar
    34     9     1    1
    35     9     4    1
    36    31    27   ar
    37    36    32    1
    38    16    20    1
    39    16    21    1
    40    22    25    1
@<TRIPOS>MOLECULE
*****
 36 40 0 0 0
SMALL
GASTEIGER

@<TRIPOS>ATOM
      1 C          61.4629   85.8479    9.2914 C.2     1  UNL1        0.1041
      2 N          60.4311   85.3921    8.3027 N.2     1  UNL1       -0.1483
      3 N          59.6933   86.6024    7.8117 N.2     1  UNL1       -0.1520
      4 C          60.2692   87.8060    8.4970 C.2     1  UNL1        0.0864
      5 C          59.9390   89.2664    8.4064 C.3     1  UNL1        0.0749
      6 C          60.7025   90.2604    9.2303 C.2     1  UNL1       -0.0051
      7 C          61.7962   89.7941   10.1448 C.2     1  UNL1        0.0465
      8 C          62.1264   88.3337   10.2354 C.2     1  UNL1        0.0171
      9 C          61.3629   87.3397    9.4115 C.2     1  UNL1        0.0362
     10 C          63.3967   84.0750   12.2694 C.ar    1  UNL1        0.1217
     11 C          64.3515   83.2037   11.5084 C.ar    1  UNL1        0.0199
     12 C          64.3435   83.2138   10.0084 C.ar    1  UNL1        0.0014
     13 C          63.3806   84.0952    9.2695 C.ar    1  UNL1        0.0016
     14 C          62.4258   84.9665   10.0304 C.ar    1  UNL1        0.0208
     15 C          62.4338   84.9564   11.5304 C.ar    1  UNL1        0.0214
     16 N          63.4126   84.0551   15.2692 N.3     1  UNL1       -0.2035
     17 S          63.4047   84.0651   13.7693 S.O2    1  UNL1        0.0572
     18 O          62.2932   85.0724   13.7818 O.2     1  UNL1       -0.1532
     19 O          64.5161   83.0578   13.7567 O.2     1  UNL1       -0.1532
     20 H          64.1269   83.4071   15.6011 H       1  UNL1        0.1442
     21 H          62.4988   83.7587   15.6121 H       1  UNL1        0.1442
     22 N          62.5597   90.7882   10.9688 N.am    1  UNL1       -0.2828
     23 C          63.4527   90.3153   12.0773 C.2     1  UNL1        0.2449
     24 O          63.5822   88.8483   12.3619 O.2     1  UNL1       -0.2730
     25 H          62.4747   91.7511   10.7820 H       1  UNL1        0.1549
     26 C          64.2162   91.3095   12.9013 C.3     1  UNL1        0.1584
     27 C          65.0496   92.3592   12.2279 C.ar    1  UNL1        0.0080
     28 C          65.1028   92.6311   10.7537 C.ar    1  UNL1        0.0050
     29 C          66.0622   93.7612   10.5252 C.ar    1  UNL1        0.0352
     30 S          66.6020   94.1878   11.8581 S.2     1  UNL1       -0.0862
     31 C          65.9762   93.3213   12.9104 C.ar    1  UNL1        0.0330
     32 N          64.1462   91.2538   14.3986 N.3     1  UNL1       -0.2631
     33 C          63.3227   90.2960   15.2078 C.3     1  UNL1        0.0728
     34 C          63.5550   90.5965   16.6590 C.3     1  UNL1        0.0188
     35 C          64.5220   91.7399   16.7466 C.3     1  UNL1        0.0188
     36 C          64.8873   92.1461   15.3497 C.3     1  UNL1        0.0728
@<TRIPOS>BOND
     1    16    17    1
     2    17    18    2
     3    17    19    2
     4    17    10    1
     5    10    11   ar
     6    11    12   ar
     7    12    13   ar
     8    13    14   ar
     9    14     1    1
    10     1     2    2
    11     2     3    1
    12     3     4    2
    13     4     5    1
    14     5     6    1
    15     6     7    2
    16     7    22    1
    17    22    23   am
    18    23    24    2
    19    23    26    1
    20    26    27    1
    21    27    28   ar
    22    28    29   ar
    23    29    30   ar
    24    30    31   ar
    25    26    32    1
    26    32    33    1
    27    33    34    1
    28    34    35    1
    29    35    36    1
    30     7     8    1
    31     8     9    2
    32    14    15   ar
    33    15    10   ar
    34     9     1    1
    35     9     4    1
    36    31    27   ar
    37    36    32    1
    38    16    20    1
    39    16    21    1
    40    22    25    1
@<TRIPOS>MOLECULE
*****
 36 40 0 0 0
SMALL
GASTEIGER

@<TRIPOS>ATOM
      1 C          61.5504   85.7718    9.2225 C.2     1  UNL1        0.1041
      2 N          60.5827   85.3342    8.1634 N.2     1  UNL1       -0.1483
      3 N          59.8520   86.5488    7.6727 N.2     1  UNL1       -0.1520
      4 C          60.3683   87.7372    8.4285 C.2     1  UNL1        0.0864
      5 C          60.0181   89.1945    8.3683 C.3     1  UNL1        0.0749
      6 C          60.7177   90.1715    9.2660 C.2     1  UNL1       -0.0051
      7 C          61.7673   89.6913   10.2239 C.2     1  UNL1        0.0465
      8 C          62.1175   88.2340   10.2841 C.2     1  UNL1        0.0171
      9 C          61.4179   87.2570    9.3864 C.2     1  UNL1        0.0362
     10 C          63.4006   83.9863   12.2457 C.ar    1  UNL1        0.1217
     11 C          64.3584   83.0988   11.5075 C.ar    1  UNL1        0.0199
     12 C          64.3802   83.1023   10.0076 C.ar    1  UNL1        0.0014
     13 C          63.4442   83.9933    9.2460 C.ar    1  UNL1        0.0016
     14 C          62.4864   84.8808    9.9841 C.ar    1  UNL1        0.0208
     15 C          62.4646   84.8773   11.4841 C.ar    1  UNL1        0.0214
     16 N          63.3568   83.9795   15.2453 N.3     1  UNL1       -0.2035
     17 S          63.3787   83.9828   13.7455 S.O2    1  UNL1        0.0572
     18 O          62.9864   85.4307   13.7430 O.2     1  UNL1       -0.1532
     19 O          63.7709   82.5351   13.7480 O.2     1  UNL1       -0.1532
     20 H          63.6033   83.0505   15.5869 H       1  UNL1        0.1442
     21 H          62.4223   84.2250   15.5722 H       1  UNL1        0.1442
     22 N          62.4669   90.6685   11.1217 N.am    1  UNL1       -0.2828
     23 C          63.4078   90.1739   12.1800 C.2     1  UNL1        0.2449
     24 O          63.6493   88.7022   12.3406 O.2     1  UNL1       -0.2730
     25 H          62.3084   91.6344   11.0163 H       1  UNL1        0.1549
     26 C          64.1074   91.1511   13.0777 C.3     1  UNL1        0.1584
     27 C          63.9782   91.0267   14.5669 C.ar    1  UNL1        0.0080
     28 C          63.3697   89.8718   15.3057 C.ar    1  UNL1        0.0050
     29 C          63.4503   90.1667   16.7742 C.ar    1  UNL1        0.0352
     30 S          64.1087   91.5039   16.9430 S.2     1  UNL1       -0.0862
     31 C          64.4350   92.0354   15.5788 C.ar    1  UNL1        0.0330
     32 N          64.9360   92.2526   12.4861 N.3     1  UNL1       -0.2631
     33 C          64.9165   92.6989   11.0541 C.3     1  UNL1        0.0728
     34 C          65.8982   93.8234   10.9057 C.3     1  UNL1        0.0188
     35 C          66.5244   94.0721   12.2459 C.3     1  UNL1        0.0188
     36 C          65.9297   93.1013   13.2226 C.3     1  UNL1        0.0728
@<TRIPOS>BOND
     1    16    17    1
     2    17    18    2
     3    17    19    2
     4    17    10    1
     5    10    11   ar
     6    11    12   ar
     7    12    13   ar
     8    13    14   ar
     9    14     1    1
    10     1     2    2
    11     2     3    1
    12     3     4    2
    13     4     5    1
    14     5     6    1
    15     6     7    2
    16     7    22    1
    17    22    23   am
    18    23    24    2
    19    23    26    1
    20    26    27    1
    21    27    28   ar
    22    28    29   ar
    23    29    30   ar
    24    30    31   ar
    25    26    32    1
    26    32    33    1
    27    33    34    1
    28    34    35    1
    29    35    36    1
    30     7     8    1
    31     8     9    2
    32    14    15   ar
    33    15    10   ar
    34     9     1    1
    35     9     4    1
    36    31    27   ar
    37    36    32    1
    38    16    20    1
    39    16    21    1
    40    22    25    1
