@<TRIPOS>MOLECULE
*****
 33 37 0 0 0
SMALL
GASTEIGER

@<TRIPOS>ATOM
      1 C          59.5428   92.2720    2.9751 C.ar    1  UNL1        0.1317
      2 C          60.9521   91.8887    3.3170 C.ar    1  UNL1        0.0346
      3 C          61.2454   91.1835    4.6080 C.ar    1  UNL1        0.0121
      4 C          60.1294   90.8616    5.5571 C.ar    1  UNL1        0.1076
      5 C          58.7201   91.2448    5.2152 C.ar    1  UNL1        0.1080
      6 N          58.4268   91.9500    3.9242 N.ar    1  UNL1       -0.2289
      7 C          58.0762   95.7980   -3.4799 C.3     1  UNL1        0.0662
      8 C          57.3086   94.5641   -3.1080 C.3     1  UNL1        0.0105
      9 C          57.6019   93.8589   -1.8170 C.3     1  UNL1        0.0278
     10 C          58.6628   94.3876   -0.8979 C.3     1  UNL1        0.0961
     11 C          59.7237   94.9162    0.0213 C.3     1  UNL1        0.0487
     12 C          60.0170   94.2110    1.3123 C.3     1  UNL1        0.0946
     13 N          59.2495   92.9772    1.6841 N.pl3   1  UNL1       -0.2931
     14 C          58.1886   92.4485    0.7649 C.3     1  UNL1        0.0946
     15 C          57.8952   93.1537   -0.5261 C.3     1  UNL1        0.0487
     16 O          59.4304   95.6214   -1.2697 O.3     1  UNL1       -0.3580
     17 C          59.1371   96.3266   -2.5607 C.3     1  UNL1        0.1474
     18 O          58.9029   96.8559   -5.7041 O.co2   1  UNL1       -0.5491
     19 C          57.7828   96.5032   -4.7709 C.2     1  UNL1        0.0524
     20 O          56.3694   96.8556   -5.1286 O.co2   1  UNL1       -0.5491
     21 C          60.4228   90.1564    6.8481 C.2     1  UNL1        0.3767
     22 N          61.5626   90.4545    7.7764 N.2     1  UNL1       -0.0308
     23 C          61.4721   89.5116    8.9395 C.2     1  UNL1        0.2320
     24 C          62.3240   89.3414   10.1622 C.2     1  UNL1        0.0537
     25 C          61.9801   88.2902   11.1755 C.2     1  UNL1        0.0714
     26 C          60.7842   87.4093   10.9660 C.2     1  UNL1       -0.0133
     27 C          59.9323   87.5796    9.7432 C.3     1  UNL1        0.1037
     28 C          60.2762   88.6307    8.7300 C.2     1  UNL1        0.2178
     29 N          59.6277   89.0292    7.4374 N.2     1  UNL1       -0.0347
     30 C          62.8321   88.1199   12.3983 C.3     1  UNL1        0.4184
     31 F          63.6840   87.9497   13.6210 F       1  UNL1       -0.1659
     32 F          62.9404   89.6102   12.5303 F       1  UNL1       -0.1659
     33 F          62.7238   86.6297   12.2663 F       1  UNL1       -0.1659
@<TRIPOS>UNITY_ATOM_ATTR
18 1
charge -1
@<TRIPOS>BOND
     1    18    19   ar
     2    19    20   ar
     3    19     7    1
     4     7     8    1
     5     8     9    1
     6     9    10    1
     7    10    11    1
     8    11    12    1
     9    12    13    1
    10    13     1    1
    11     1     2   ar
    12     2     3   ar
    13     3     4   ar
    14     4    21    1
    15    21    22    2
    16    22    23    1
    17    23    24    2
    18    24    25    1
    19    25    30    1
    20    30    31    1
    21    30    32    1
    22    30    33    1
    23    25    26    2
    24    26    27    1
    25    27    28    1
    26    28    29    2
    27     4     5   ar
    28     5     6   ar
    29    13    14    1
    30    14    15    1
    31    10    16    1
    32    16    17    1
    33    17     7    1
    34    15    10    1
    35     6     1   ar
    36    29    21    1
    37    28    23    1
@<TRIPOS>MOLECULE
*****
 33 37 0 0 0
SMALL
GASTEIGER

@<TRIPOS>ATOM
      1 C          72.4621   78.6196   10.2157 C.ar    1  UNL1        0.1317
      2 C          71.3643   77.6060   10.3468 C.ar    1  UNL1        0.0346
      3 C          71.2246   76.8110   11.6111 C.ar    1  UNL1        0.0121
      4 C          72.1828   77.0296   12.7442 C.ar    1  UNL1        0.1076
      5 C          73.2806   78.0432   12.6131 C.ar    1  UNL1        0.1080
      6 N          73.4203   78.8383   11.3488 N.ar    1  UNL1       -0.2289
      7 C          73.1605   82.5948    3.8942 C.3     1  UNL1        0.0662
      8 C          72.5484   83.2226    5.1112 C.3     1  UNL1        0.0105
      9 C          72.4087   82.4276    6.3755 C.3     1  UNL1        0.0278
     10 C          72.8811   81.0047    6.4228 C.3     1  UNL1        0.0961
     11 C          73.3536   79.5819    6.4701 C.3     1  UNL1        0.0487
     12 C          73.2139   78.7869    7.7344 C.3     1  UNL1        0.0946
     13 N          72.6018   79.4147    8.9514 N.pl3   1  UNL1       -0.2931
     14 C          72.1293   80.8375    8.9041 C.3     1  UNL1        0.0946
     15 C          72.2690   81.6325    7.6398 C.3     1  UNL1        0.0487
     16 O          73.4933   80.3769    5.2058 O.3     1  UNL1       -0.3580
     17 C          73.6329   81.1720    3.9415 C.3     1  UNL1        0.1474
     18 O          73.4749   82.6861    1.3169 O.co2   1  UNL1       -0.5491
     19 C          73.3002   83.3898    2.6299 C.2     1  UNL1        0.0524
     20 O          73.2651   84.8886    2.6787 O.co2   1  UNL1       -0.5491
     21 C          72.0431   76.2346   14.0085 C.2     1  UNL1        0.3767
     22 N          73.1200   75.9997   15.0259 N.2     1  UNL1       -0.0308
     23 C          72.5445   75.1548   16.1236 C.2     1  UNL1        0.2320
     24 C          73.1399   74.6100   17.3880 C.2     1  UNL1        0.0537
     25 C          72.3026   73.7778   18.3133 C.2     1  UNL1        0.0714
     26 C          70.8699   73.4904   17.9743 C.2     1  UNL1       -0.0133
     27 C          70.2746   74.0352   16.7100 C.3     1  UNL1        0.1037
     28 C          71.1118   74.8674   15.7846 C.2     1  UNL1        0.2178
     29 N          70.8020   75.5347   14.4774 N.2     1  UNL1       -0.0347
     30 C          72.8979   73.2330   19.5778 C.3     1  UNL1        0.4184
     31 F          73.4933   72.6882   20.8422 F       1  UNL1       -0.1659
     32 F          73.2679   74.6232   20.0026 F       1  UNL1       -0.1659
     33 F          72.5280   71.8428   19.1530 F       1  UNL1       -0.1659
@<TRIPOS>UNITY_ATOM_ATTR
18 1
charge -1
@<TRIPOS>BOND
     1    18    19   ar
     2    19    20   ar
     3    19     7    1
     4     7     8    1
     5     8     9    1
     6     9    10    1
     7    10    11    1
     8    11    12    1
     9    12    13    1
    10    13     1    1
    11     1     2   ar
    12     2     3   ar
    13     3     4   ar
    14     4    21    1
    15    21    22    2
    16    22    23    1
    17    23    24    2
    18    24    25    1
    19    25    30    1
    20    30    31    1
    21    30    32    1
    22    30    33    1
    23    25    26    2
    24    26    27    1
    25    27    28    1
    26    28    29    2
    27     4     5   ar
    28     5     6   ar
    29    13    14    1
    30    14    15    1
    31    10    16    1
    32    16    17    1
    33    17     7    1
    34    15    10    1
    35     6     1   ar
    36    29    21    1
    37    28    23    1
@<TRIPOS>MOLECULE
*****
 33 37 0 0 0
SMALL
GASTEIGER

@<TRIPOS>ATOM
      1 C          61.6671   92.4090    1.9941 C.ar    1  UNL1        0.1317
      2 C          62.6252   91.4698    2.6648 C.ar    1  UNL1        0.0346
      3 C          62.2351   90.7857    3.9415 C.ar    1  UNL1        0.0121
      4 C          60.8869   91.0408    4.5474 C.ar    1  UNL1        0.1076
      5 C          59.9288   91.9800    3.8766 C.ar    1  UNL1        0.1080
      6 N          60.3189   92.6641    2.6000 N.ar    1  UNL1       -0.2289
      7 C          63.6177   95.8296   -4.3891 C.3     1  UNL1        0.0662
      8 C          62.3290   95.0659   -4.3109 C.3     1  UNL1        0.0105
      9 C          61.9389   94.3818   -3.0343 C.3     1  UNL1        0.0278
     10 C          62.8374   94.4613   -1.8358 C.3     1  UNL1        0.0961
     11 C          63.7360   94.5409   -0.6374 C.3     1  UNL1        0.0487
     12 C          63.3459   93.8568    0.6392 C.3     1  UNL1        0.0946
     13 N          62.0572   93.0931    0.7174 N.pl3   1  UNL1       -0.2931
     14 C          61.1587   93.0135   -0.4810 C.3     1  UNL1        0.0946
     15 C          61.5488   93.6977   -1.7576 C.3     1  UNL1        0.0487
     16 O          64.1261   95.2250   -1.9141 O.3     1  UNL1       -0.3580
     17 C          64.5162   95.9091   -3.1907 C.3     1  UNL1        0.1474
     18 O          62.9605   96.8556   -6.6837 O.co2   1  UNL1       -0.5491
     19 C          64.0078   96.5137   -5.6658 C.2     1  UNL1        0.0524
     20 O          65.4451   96.8558   -5.9244 O.co2   1  UNL1       -0.5491
     21 C          60.4968   90.3567    5.8240 C.2     1  UNL1        0.3767
     22 N          60.7213   90.8830    7.2106 N.2     1  UNL1       -0.0308
     23 C          60.1769   89.8777    8.1818 C.2     1  UNL1        0.2320
     24 C          60.1195   89.8591    9.6805 C.2     1  UNL1        0.0537
     25 C          59.5013   88.6929   10.3929 C.2     1  UNL1        0.0714
     26 C          58.9404   87.5452    9.6065 C.2     1  UNL1       -0.0133
     27 C          58.9978   87.5639    8.1078 C.3     1  UNL1        0.1037
     28 C          59.6160   88.7301    7.3954 C.2     1  UNL1        0.2178
     29 N          59.8137   89.0261    5.9382 N.2     1  UNL1       -0.0347
     30 C          59.4439   88.6742   11.8917 C.3     1  UNL1        0.4184
     31 F          59.3865   88.6555   13.3905 F       1  UNL1       -0.1659
     32 F          60.1338   87.3424   11.9015 F       1  UNL1       -0.1659
     33 F          58.7539   90.0060   11.8820 F       1  UNL1       -0.1659
@<TRIPOS>UNITY_ATOM_ATTR
18 1
charge -1
@<TRIPOS>BOND
     1    18    19   ar
     2    19    20   ar
     3    19     7    1
     4     7     8    1
     5     8     9    1
     6     9    10    1
     7    10    11    1
     8    11    12    1
     9    12    13    1
    10    13     1    1
    11     1     2   ar
    12     2     3   ar
    13     3     4   ar
    14     4    21    1
    15    21    22    2
    16    22    23    1
    17    23    24    2
    18    24    25    1
    19    25    30    1
    20    30    31    1
    21    30    32    1
    22    30    33    1
    23    25    26    2
    24    26    27    1
    25    27    28    1
    26    28    29    2
    27     4     5   ar
    28     5     6   ar
    29    13    14    1
    30    14    15    1
    31    10    16    1
    32    16    17    1
    33    17     7    1
    34    15    10    1
    35     6     1   ar
    36    29    21    1
    37    28    23    1
@<TRIPOS>MOLECULE
*****
 33 37 0 0 0
SMALL
GASTEIGER

@<TRIPOS>ATOM
      1 C          60.2569   92.3541    2.4880 C.ar    1  UNL1        0.1317
      2 C          61.4704   91.7037    3.0832 C.ar    1  UNL1        0.0346
      3 C          61.3867   91.0519    4.4316 C.ar    1  UNL1        0.0121
      4 C          60.0896   91.0506    5.1849 C.ar    1  UNL1        0.1076
      5 C          58.8761   91.7011    4.5896 C.ar    1  UNL1        0.1080
      6 N          58.9598   92.3528    3.2412 N.ar    1  UNL1       -0.2289
      7 C          60.6753   95.6128   -4.2541 C.3     1  UNL1        0.0662
      8 C          61.6294   94.5136   -3.8918 C.3     1  UNL1        0.0105
      9 C          61.5458   93.8619   -2.5434 C.3     1  UNL1        0.0278
     10 C          60.5079   94.3094   -1.5572 C.3     1  UNL1        0.0961
     11 C          59.4701   94.7568   -0.5710 C.3     1  UNL1        0.0487
     12 C          59.3864   94.1051    0.7774 C.3     1  UNL1        0.0946
     13 N          60.3406   93.0059    1.1396 N.pl3   1  UNL1       -0.2931
     14 C          61.3784   92.5584    0.1534 C.3     1  UNL1        0.0946
     15 C          61.4621   93.2101   -1.1950 C.3     1  UNL1        0.0487
     16 O          59.5538   95.4086   -1.9195 O.3     1  UNL1       -0.3580
     17 C          59.6374   96.0603   -3.2679 C.3     1  UNL1        0.1474
     18 O          59.5141   96.7689   -6.2703 O.co2   1  UNL1       -0.5491
     19 C          60.7589   96.2646   -5.6025 C.2     1  UNL1        0.0524
     20 O          62.0874   96.4120   -6.2831 O.co2   1  UNL1       -0.5491
     21 C          60.0059   90.3989    6.5333 C.2     1  UNL1        0.3767
     22 N          59.9798   91.1076    7.8550 N.2     1  UNL1       -0.0308
     23 C          59.8915   90.0707    8.9353 C.2     1  UNL1        0.2320
     24 C          59.8333   90.1811   10.4301 C.2     1  UNL1        0.0537
     25 C          59.7465   88.9419   11.2708 C.2     1  UNL1        0.0714
     26 C          59.7180   87.5923   10.6167 C.2     1  UNL1       -0.0133
     27 C          59.7762   87.4820    9.1220 C.3     1  UNL1        0.1037
     28 C          59.8629   88.7212    8.2813 C.2     1  UNL1        0.2178
     29 N          59.9337   88.9240    6.7967 N.2     1  UNL1       -0.0347
     30 C          59.6883   89.0523   12.7657 C.3     1  UNL1        0.4184
     31 F          59.6301   89.1626   14.2604 F       1  UNL1       -0.1659
     32 F          58.3089   88.4632   12.7554 F       1  UNL1       -0.1659
     33 F          61.0678   89.6413   12.7759 F       1  UNL1       -0.1659
@<TRIPOS>UNITY_ATOM_ATTR
18 1
charge -1
@<TRIPOS>BOND
     1    18    19   ar
     2    19    20   ar
     3    19     7    1
     4     7     8    1
     5     8     9    1
     6     9    10    1
     7    10    11    1
     8    11    12    1
     9    12    13    1
    10    13     1    1
    11     1     2   ar
    12     2     3   ar
    13     3     4   ar
    14     4    21    1
    15    21    22    2
    16    22    23    1
    17    23    24    2
    18    24    25    1
    19    25    30    1
    20    30    31    1
    21    30    32    1
    22    30    33    1
    23    25    26    2
    24    26    27    1
    25    27    28    1
    26    28    29    2
    27     4     5   ar
    28     5     6   ar
    29    13    14    1
    30    14    15    1
    31    10    16    1
    32    16    17    1
    33    17     7    1
    34    15    10    1
    35     6     1   ar
    36    29    21    1
    37    28    23    1
@<TRIPOS>MOLECULE
*****
 33 37 0 0 0
SMALL
GASTEIGER

@<TRIPOS>ATOM
      1 C          60.3605   90.3828    5.8801 C.ar    1  UNL1        0.1317
      2 C          58.9459   90.7921    5.5950 C.ar    1  UNL1        0.0346
      3 C          58.6485   91.7161    4.4514 C.ar    1  UNL1        0.0121
      4 C          59.7656   92.2309    3.5930 C.ar    1  UNL1        0.1076
      5 C          61.1802   91.8216    3.8781 C.ar    1  UNL1        0.1080
      6 N          61.4777   90.8976    5.0217 N.ar    1  UNL1       -0.2289
      7 C          61.8478   85.7626   11.5978 C.3     1  UNL1        0.0662
      8 C          61.2666   85.2194   10.3262 C.3     1  UNL1        0.0105
      9 C          60.9691   86.1434    9.1827 C.3     1  UNL1        0.0278
     10 C          61.2529   87.6107    9.3107 C.3     1  UNL1        0.0961
     11 C          61.5367   89.0780    9.4388 C.3     1  UNL1        0.0487
     12 C          61.2392   90.0020    8.2952 C.3     1  UNL1        0.0946
     13 N          60.6580   89.4588    7.0236 N.pl3   1  UNL1       -0.2931
     14 C          60.3742   87.9915    6.8956 C.3     1  UNL1        0.0946
     15 C          60.6716   87.0674    8.0391 C.3     1  UNL1        0.0487
     16 O          61.8341   88.1540   10.5823 O.3     1  UNL1       -0.3580
     17 C          62.1316   87.2299   11.7258 C.3     1  UNL1        0.1474
     18 O          62.3795   83.3794   12.4851 O.co2   1  UNL1       -0.5491
     19 C          62.1453   84.8386   12.7413 C.2     1  UNL1        0.0524
     20 O          62.2085   85.3738   14.1411 O.co2   1  UNL1       -0.5491
     21 C          59.4682   93.1549    2.4495 C.2     1  UNL1        0.3767
     22 N          58.6960   92.8059    1.2118 N.2     1  UNL1       -0.0308
     23 C          58.6413   94.0255    0.3402 C.2     1  UNL1        0.2320
     24 C          58.0145   94.2743   -0.9997 C.2     1  UNL1        0.0537
     25 C          58.1261   95.6259   -1.6404 C.2     1  UNL1        0.0714
     26 C          58.8644   96.7287   -0.9414 C.2     1  UNL1       -0.0133
     27 C          59.4912   96.4799    0.3985 C.3     1  UNL1        0.1037
     28 C          59.3796   95.1283    1.0392 C.2     1  UNL1        0.2178
     29 N          59.8906   94.5902    2.3428 N.2     1  UNL1       -0.0347
     30 C          57.4993   95.8748   -2.9804 C.3     1  UNL1        0.4184
     31 F          56.8726   96.1236   -4.3202 F       1  UNL1       -0.1659
     32 F          58.7461   96.5747   -3.4335 F       1  UNL1       -0.1659
     33 F          56.2525   95.1748   -2.5272 F       1  UNL1       -0.1659
@<TRIPOS>UNITY_ATOM_ATTR
18 1
charge -1
@<TRIPOS>BOND
     1    18    19   ar
     2    19    20   ar
     3    19     7    1
     4     7     8    1
     5     8     9    1
     6     9    10    1
     7    10    11    1
     8    11    12    1
     9    12    13    1
    10    13     1    1
    11     1     2   ar
    12     2     3   ar
    13     3     4   ar
    14     4    21    1
    15    21    22    2
    16    22    23    1
    17    23    24    2
    18    24    25    1
    19    25    30    1
    20    30    31    1
    21    30    32    1
    22    30    33    1
    23    25    26    2
    24    26    27    1
    25    27    28    1
    26    28    29    2
    27     4     5   ar
    28     5     6   ar
    29    13    14    1
    30    14    15    1
    31    10    16    1
    32    16    17    1
    33    17     7    1
    34    15    10    1
    35     6     1   ar
    36    29    21    1
    37    28    23    1
