@<TRIPOS>MOLECULE
*****
 36 41 0 0 0
SMALL
GASTEIGER

@<TRIPOS>ATOM
      1 C          62.8521   84.4274   13.0260 C.ar    1  UNL1        0.1335
      2 C          62.4121   85.1810   11.8060 C.ar    1  UNL1        0.0359
      3 C          62.7036   86.6474   11.6845 C.ar    1  UNL1        0.0236
      4 C          63.4351   87.3601   12.7831 C.ar    1  UNL1        0.1025
      5 C          63.8752   86.6065   14.0031 C.ar    1  UNL1        0.1813
      6 N          63.5836   85.1402   14.1245 N.ar    1  UNL1       -0.2104
      7 N          64.5729   87.5702   14.9166 N.ar    1  UNL1       -0.2076
      8 C          64.5641   88.9194   14.2612 C.ar    1  UNL1        0.1505
      9 N          63.8609   88.7896   12.9426 N.ar    1  UNL1       -0.2735
     10 C          61.6859   78.5619   13.5119 C.3     1  UNL1        0.0897
     11 N          61.9775   80.0282   13.3904 N.3     1  UNL1       -0.2686
     12 C          62.7693   80.5414   12.2244 C.3     1  UNL1        0.0939
     13 C          63.0608   82.0078   12.1029 C.3     1  UNL1        0.1095
     14 N          62.5605   82.9610   13.1474 N.pl3   1  UNL1       -0.2903
     15 C          61.7687   82.4478   14.3135 C.3     1  UNL1        0.1095
     16 C          61.4772   80.9815   14.4350 C.3     1  UNL1        0.0939
     17 C          65.1548   90.1775   14.8254 C.ar    1  UNL1        0.0347
     18 C          64.3341   91.0539   15.7245 C.ar    1  UNL1        0.0053
     19 C          64.9247   92.3119   16.2887 C.ar    1  UNL1        0.0297
     20 C          66.3361   92.6937   15.9538 C.ar    1  UNL1        0.1401
     21 F          66.9268   93.9518   16.5179 F       1  UNL1       -0.2042
     22 C          67.1568   91.8174   15.0546 C.ar    1  UNL1        0.0297
     23 C          66.5662   90.5593   14.4905 C.ar    1  UNL1        0.0053
     24 C          63.6250   89.8951   11.9566 C.ar    1  UNL1        0.1533
     25 C          62.5147   89.7819   10.9544 C.ar    1  UNL1        0.0582
     26 C          62.2789   90.8874    9.9684 C.ar    1  UNL1        0.1049
     27 N          63.1531   92.1061    9.9847 N.ar    1  UNL1       -0.2122
     28 C          64.2634   92.2194   10.9870 C.ar    1  UNL1        0.2182
     29 N          64.4993   91.1139   11.9729 N.ar    1  UNL1       -0.1960
     30 N          65.1377   93.4381   11.0033 N.pl3   1  UNL1       -0.3046
     31 H          64.8637   94.2337   11.5144 H       1  UNL1        0.1496
     32 C          66.4294   93.4447   10.2409 C.3     1  UNL1        0.0718
     33 C          67.4510   92.3465   10.2277 C.3     1  UNL1        0.0196
     34 C          68.5794   92.7737    9.3364 C.3     1  UNL1        0.0017
     35 C          68.2551   94.1359    8.7988 C.3     1  UNL1        0.0017
     36 C          66.9263   94.5507    9.3577 C.3     1  UNL1        0.0196
@<TRIPOS>BOND
     1    10    11    1
     2    11    12    1
     3    12    13    1
     4    13    14    1
     5    14     1    1
     6     1     2   ar
     7     2     3   ar
     8     3     4   ar
     9     4     5   ar
    10     5     6   ar
    11     5     7   ar
    12     7     8   ar
    13     8    17    1
    14    17    18   ar
    15    18    19   ar
    16    19    20   ar
    17    20    21    1
    18    20    22   ar
    19    22    23   ar
    20     8     9   ar
    21     9    24    1
    22    24    25   ar
    23    25    26   ar
    24    26    27   ar
    25    27    28   ar
    26    28    30    1
    27    30    32    1
    28    32    33    1
    29    33    34    1
    30    34    35    1
    31    35    36    1
    32    28    29   ar
    33    14    15    1
    34    15    16    1
    35    16    11    1
    36     6     1   ar
    37    23    17   ar
    38    29    24   ar
    39     9     4   ar
    40    36    32    1
    41    30    31    1
@<TRIPOS>MOLECULE
*****
 36 41 0 0 0
SMALL
GASTEIGER

@<TRIPOS>ATOM
      1 C          62.8446   83.4284   11.7304 C.ar    1  UNL1        0.1335
      2 C          62.2523   84.3054   10.6674 C.ar    1  UNL1        0.0359
      3 C          62.2480   85.7953   10.8407 C.ar    1  UNL1        0.0236
      4 C          62.8360   86.4082   12.0771 C.ar    1  UNL1        0.1025
      5 C          63.4282   85.5312   13.1402 C.ar    1  UNL1        0.1813
      6 N          63.4325   84.0413   12.9668 N.ar    1  UNL1       -0.2104
      7 N          63.9317   86.4148   14.2427 N.ar    1  UNL1       -0.2076
      8 C          63.6506   87.8380   13.8611 C.ar    1  UNL1        0.1505
      9 N          62.9734   87.8339   12.5227 N.ar    1  UNL1       -0.2735
     10 C          62.8619   77.4686   11.0369 C.3     1  UNL1        0.0897
     11 N          62.8576   78.9585   11.2103 N.3     1  UNL1       -0.2686
     12 C          62.5366   79.5570   12.5478 C.3     1  UNL1        0.0939
     13 C          62.5323   81.0470   12.7211 C.3     1  UNL1        0.1095
     14 N          62.8489   81.9384   11.5570 N.pl3   1  UNL1       -0.2903
     15 C          63.1698   81.3399   10.2196 C.3     1  UNL1        0.1095
     16 C          63.1741   79.8500   10.0462 C.3     1  UNL1        0.0939
     17 C          63.9876   89.0521   14.6751 C.ar    1  UNL1        0.0347
     18 C          65.1012   89.9593   14.2430 C.ar    1  UNL1        0.0053
     19 C          65.4382   91.1734   15.0569 C.ar    1  UNL1        0.0297
     20 C          64.6616   91.4802   16.3029 C.ar    1  UNL1        0.1401
     21 F          64.9985   92.6943   17.1169 F       1  UNL1       -0.2042
     22 C          63.5479   90.5730   16.7350 C.ar    1  UNL1        0.0297
     23 C          63.2109   89.3590   15.9211 C.ar    1  UNL1        0.0053
     24 C          62.5143   89.0432   11.7632 C.ar    1  UNL1        0.1533
     25 C          61.0517   89.2587   11.5093 C.ar    1  UNL1        0.0582
     26 C          60.5927   90.4680   10.7498 C.ar    1  UNL1        0.1049
     27 N          61.5961   91.4617   10.2442 N.ar    1  UNL1       -0.2122
     28 C          63.0586   91.2462   10.4981 C.ar    1  UNL1        0.2182
     29 N          63.5177   90.0369   11.2576 N.ar    1  UNL1       -0.1960
     30 N          64.0621   92.2399    9.9925 N.pl3   1  UNL1       -0.3046
     31 H          63.8832   92.7427    9.1652 H       1  UNL1        0.1496
     32 C          65.3380   92.4677   10.7475 C.3     1  UNL1        0.0718
     33 C          66.7257   92.2675   10.2142 C.3     1  UNL1        0.0196
     34 C          67.6957   92.6117   11.3054 C.3     1  UNL1        0.0017
     35 C          66.9076   93.0245   12.5130 C.3     1  UNL1        0.0017
     36 C          65.4504   92.9355   12.1682 C.3     1  UNL1        0.0196
@<TRIPOS>BOND
     1    10    11    1
     2    11    12    1
     3    12    13    1
     4    13    14    1
     5    14     1    1
     6     1     2   ar
     7     2     3   ar
     8     3     4   ar
     9     4     5   ar
    10     5     6   ar
    11     5     7   ar
    12     7     8   ar
    13     8    17    1
    14    17    18   ar
    15    18    19   ar
    16    19    20   ar
    17    20    21    1
    18    20    22   ar
    19    22    23   ar
    20     8     9   ar
    21     9    24    1
    22    24    25   ar
    23    25    26   ar
    24    26    27   ar
    25    27    28   ar
    26    28    30    1
    27    30    32    1
    28    32    33    1
    29    33    34    1
    30    34    35    1
    31    35    36    1
    32    28    29   ar
    33    14    15    1
    34    15    16    1
    35    16    11    1
    36     6     1   ar
    37    23    17   ar
    38    29    24   ar
    39     9     4   ar
    40    36    32    1
    41    30    31    1
@<TRIPOS>MOLECULE
*****
 36 41 0 0 0
SMALL
GASTEIGER

@<TRIPOS>ATOM
      1 C          62.8653   83.9455   12.9395 C.ar    1  UNL1        0.1335
      2 C          62.3690   84.6722   11.7248 C.ar    1  UNL1        0.0359
      3 C          62.5588   86.1555   11.6085 C.ar    1  UNL1        0.0236
      4 C          63.2451   86.9122   12.7070 C.ar    1  UNL1        0.1025
      5 C          63.7414   86.1855   13.9217 C.ar    1  UNL1        0.1813
      6 N          63.5515   84.7022   14.0379 N.ar    1  UNL1       -0.2104
      7 N          64.3758   87.1910   14.8363 N.ar    1  UNL1       -0.2076
      8 C          64.2716   88.5391   14.1869 C.ar    1  UNL1        0.1505
      9 N          63.5727   88.3668   12.8708 N.ar    1  UNL1       -0.2735
     10 C          62.1058   78.0119   13.4048 C.3     1  UNL1        0.0897
     11 N          62.2957   79.4953   13.2885 N.3     1  UNL1       -0.2686
     12 C          62.8988   80.0790   12.0453 C.3     1  UNL1        0.0939
     13 C          63.0886   81.5624   11.9289 C.3     1  UNL1        0.1095
     14 N          62.6754   82.4621   13.0558 N.pl3   1  UNL1       -0.2903
     15 C          62.0724   81.8784   14.2990 C.3     1  UNL1        0.1095
     16 C          61.8825   80.3950   14.4154 C.3     1  UNL1        0.0939
     17 C          64.7774   89.8324   14.7540 C.ar    1  UNL1        0.0347
     18 C          66.1267   90.3505   14.3527 C.ar    1  UNL1        0.0053
     19 C          66.6325   91.6437   14.9197 C.ar    1  UNL1        0.0297
     20 C          65.7891   92.4189   15.8880 C.ar    1  UNL1        0.1401
     21 F          66.2949   93.7123   16.4551 F       1  UNL1       -0.2042
     22 C          64.4398   91.9009   16.2893 C.ar    1  UNL1        0.0297
     23 C          63.9339   90.6076   15.7222 C.ar    1  UNL1        0.0053
     24 C          63.2570   89.4576   11.8908 C.ar    1  UNL1        0.1533
     25 C          64.0657   90.7209   11.8884 C.ar    1  UNL1        0.0582
     26 C          63.7499   91.8116   10.9083 C.ar    1  UNL1        0.1049
     27 N          62.6254   91.6390    9.9307 N.ar    1  UNL1       -0.2122
     28 C          61.8166   90.3757    9.9331 C.ar    1  UNL1        0.2182
     29 N          62.1325   89.2850   10.9132 N.ar    1  UNL1       -0.1960
     30 N          60.6922   90.2032    8.9555 N.pl3   1  UNL1       -0.3046
     31 H          60.2386   90.9933    8.5824 H       1  UNL1        0.1496
     32 C          60.2587   88.8267    8.5463 C.3     1  UNL1        0.0718
     33 C          60.8706   87.5366    9.0060 C.3     1  UNL1        0.0196
     34 C          60.1274   86.4112    8.3494 C.3     1  UNL1        0.0017
     35 C          59.0562   87.0058    7.4839 C.3     1  UNL1        0.0017
     36 C          59.1373   88.4986    7.6056 C.3     1  UNL1        0.0196
@<TRIPOS>BOND
     1    10    11    1
     2    11    12    1
     3    12    13    1
     4    13    14    1
     5    14     1    1
     6     1     2   ar
     7     2     3   ar
     8     3     4   ar
     9     4     5   ar
    10     5     6   ar
    11     5     7   ar
    12     7     8   ar
    13     8    17    1
    14    17    18   ar
    15    18    19   ar
    16    19    20   ar
    17    20    21    1
    18    20    22   ar
    19    22    23   ar
    20     8     9   ar
    21     9    24    1
    22    24    25   ar
    23    25    26   ar
    24    26    27   ar
    25    27    28   ar
    26    28    30    1
    27    30    32    1
    28    32    33    1
    29    33    34    1
    30    34    35    1
    31    35    36    1
    32    28    29   ar
    33    14    15    1
    34    15    16    1
    35    16    11    1
    36     6     1   ar
    37    23    17   ar
    38    29    24   ar
    39     9     4   ar
    40    36    32    1
    41    30    31    1
@<TRIPOS>MOLECULE
*****
 36 41 0 0 0
SMALL
GASTEIGER

@<TRIPOS>ATOM
      1 C          60.4582   89.0125    8.3215 C.ar    1  UNL1        0.1335
      2 C          61.0883   89.8205    9.4169 C.ar    1  UNL1        0.0359
      3 C          61.8061   89.1313   10.5393 C.ar    1  UNL1        0.0236
      4 C          61.8937   87.6341   10.5662 C.ar    1  UNL1        0.1025
      5 C          61.2636   86.8261    9.4708 C.ar    1  UNL1        0.1813
      6 N          60.5458   87.5153    8.3484 N.ar    1  UNL1       -0.2104
      7 N          61.5111   85.3759    9.7634 N.ar    1  UNL1       -0.2076
      8 C          62.2942   85.2876   11.0397 C.ar    1  UNL1        0.1505
      9 N          62.5307   86.6832   11.5359 N.ar    1  UNL1       -0.2735
     10 C          57.5871   91.7693    3.8318 C.3     1  UNL1        0.0897
     11 N          58.3048   91.0801    4.9542 N.3     1  UNL1       -0.2686
     12 C          57.5375   90.2385    5.9303 C.3     1  UNL1        0.0939
     13 C          58.2553   89.5493    7.0528 C.3     1  UNL1        0.1095
     14 N          59.7403   89.7017    7.1990 N.pl3   1  UNL1       -0.2903
     15 C          60.5076   90.5434    6.2229 C.3     1  UNL1        0.1095
     16 C          59.7899   91.2326    5.1004 C.3     1  UNL1        0.0939
     17 C          62.7592   84.0252   11.7032 C.ar    1  UNL1        0.0347
     18 C          62.0363   83.5014   12.9086 C.ar    1  UNL1        0.0053
     19 C          62.5013   82.2391   13.5722 C.ar    1  UNL1        0.0297
     20 C          63.6891   81.5006   13.0303 C.ar    1  UNL1        0.1401
     21 F          64.1541   80.2382   13.6939 F       1  UNL1       -0.2042
     22 C          64.4120   82.0244   11.8249 C.ar    1  UNL1        0.0297
     23 C          63.9471   83.2867   11.1614 C.ar    1  UNL1        0.0053
     24 C          63.2737   87.0616   12.7828 C.ar    1  UNL1        0.1533
     25 C          63.7909   85.9940   13.7008 C.ar    1  UNL1        0.0582
     26 C          64.5339   86.3725   14.9476 C.ar    1  UNL1        0.1049
     27 N          64.7597   87.8185   15.2765 N.ar    1  UNL1       -0.2122
     28 C          64.2424   88.8861   14.3585 C.ar    1  UNL1        0.2182
     29 N          63.4995   88.5076   13.1116 N.ar    1  UNL1       -0.1960
     30 N          64.4682   90.3321   14.6874 N.pl3   1  UNL1       -0.3046
     31 H          64.2035   90.6837   15.5680 H       1  UNL1        0.1496
     32 C          65.0972   91.2422   13.6745 C.3     1  UNL1        0.0718
     33 C          66.4643   91.8526   13.7663 C.3     1  UNL1        0.0196
     34 C          66.6816   92.6894   12.5405 C.3     1  UNL1        0.0017
     35 C          65.4488   92.5962   11.6912 C.3     1  UNL1        0.0017
     36 C          64.4695   91.7018   12.3920 C.3     1  UNL1        0.0196
@<TRIPOS>BOND
     1    10    11    1
     2    11    12    1
     3    12    13    1
     4    13    14    1
     5    14     1    1
     6     1     2   ar
     7     2     3   ar
     8     3     4   ar
     9     4     5   ar
    10     5     6   ar
    11     5     7   ar
    12     7     8   ar
    13     8    17    1
    14    17    18   ar
    15    18    19   ar
    16    19    20   ar
    17    20    21    1
    18    20    22   ar
    19    22    23   ar
    20     8     9   ar
    21     9    24    1
    22    24    25   ar
    23    25    26   ar
    24    26    27   ar
    25    27    28   ar
    26    28    30    1
    27    30    32    1
    28    32    33    1
    29    33    34    1
    30    34    35    1
    31    35    36    1
    32    28    29   ar
    33    14    15    1
    34    15    16    1
    35    16    11    1
    36     6     1   ar
    37    23    17   ar
    38    29    24   ar
    39     9     4   ar
    40    36    32    1
    41    30    31    1
@<TRIPOS>MOLECULE
*****
 36 41 0 0 0
SMALL
GASTEIGER

@<TRIPOS>ATOM
      1 C          63.6943   88.8114   13.7742 C.ar    1  UNL1        0.1335
      2 C          63.2399   89.1456   12.3843 C.ar    1  UNL1        0.0359
      3 C          62.9261   88.0464   11.4132 C.ar    1  UNL1        0.0236
      4 C          63.0667   86.6129   11.8319 C.ar    1  UNL1        0.1025
      5 C          63.5211   86.2786   13.2218 C.ar    1  UNL1        0.1813
      6 N          63.8349   87.3779   14.1929 N.ar    1  UNL1       -0.2104
      7 N          63.5664   84.7847   13.3479 N.ar    1  UNL1       -0.2076
      8 C          63.1400   84.1955   12.0360 C.ar    1  UNL1        0.1505
      9 N          62.8312   85.3254   11.0990 N.ar    1  UNL1       -0.2735
     10 C          64.9496   93.2084   17.6589 C.3     1  UNL1        0.0897
     11 N          64.6357   92.1092   16.6877 N.3     1  UNL1       -0.2686
     12 C          63.5328   91.1372   16.9859 C.3     1  UNL1        0.0939
     13 C          63.2190   90.0379   16.0147 C.3     1  UNL1        0.1095
     14 N          64.0081   89.9107   14.7454 N.pl3   1  UNL1       -0.2903
     15 C          65.1110   90.8826   14.4472 C.3     1  UNL1        0.1095
     16 C          65.4248   91.9819   15.4184 C.3     1  UNL1        0.0939
     17 C          63.0400   82.7332   11.7171 C.ar    1  UNL1        0.0347
     18 C          63.5480   82.2155   10.4041 C.ar    1  UNL1        0.0053
     19 C          63.4481   80.7532   10.0852 C.ar    1  UNL1        0.0297
     20 C          62.8400   79.8087   11.0792 C.ar    1  UNL1        0.1401
     21 F          62.7400   78.3463   10.7603 F       1  UNL1       -0.2042
     22 C          62.3319   80.3264   12.3921 C.ar    1  UNL1        0.0297
     23 C          62.4319   81.7887   12.7111 C.ar    1  UNL1        0.0053
     24 C          62.3681   85.1914    9.6786 C.ar    1  UNL1        0.1533
     25 C          63.1566   84.3634    8.7076 C.ar    1  UNL1        0.0582
     26 C          62.6935   84.2295    7.2873 C.ar    1  UNL1        0.1049
     27 N          61.4420   84.9236    6.8378 N.ar    1  UNL1       -0.2122
     28 C          60.6536   85.7516    7.8087 C.ar    1  UNL1        0.2182
     29 N          61.1167   85.8856    9.2291 N.ar    1  UNL1       -0.1960
     30 N          59.4021   86.4457    7.3592 N.pl3   1  UNL1       -0.3046
     31 H          58.6107   85.9181    7.1052 H       1  UNL1        0.1496
     32 C          59.3565   87.9437    7.2967 C.3     1  UNL1        0.0718
     33 C          59.8011   88.8852    8.3765 C.3     1  UNL1        0.0196
     34 C          59.5776   90.2866    7.8906 C.3     1  UNL1        0.0017
     35 C          58.9950   90.2113    6.5105 C.3     1  UNL1        0.0017
     36 C          58.8583   88.7633    6.1434 C.3     1  UNL1        0.0196
@<TRIPOS>BOND
     1    10    11    1
     2    11    12    1
     3    12    13    1
     4    13    14    1
     5    14     1    1
     6     1     2   ar
     7     2     3   ar
     8     3     4   ar
     9     4     5   ar
    10     5     6   ar
    11     5     7   ar
    12     7     8   ar
    13     8    17    1
    14    17    18   ar
    15    18    19   ar
    16    19    20   ar
    17    20    21    1
    18    20    22   ar
    19    22    23   ar
    20     8     9   ar
    21     9    24    1
    22    24    25   ar
    23    25    26   ar
    24    26    27   ar
    25    27    28   ar
    26    28    30    1
    27    30    32    1
    28    32    33    1
    29    33    34    1
    30    34    35    1
    31    35    36    1
    32    28    29   ar
    33    14    15    1
    34    15    16    1
    35    16    11    1
    36     6     1   ar
    37    23    17   ar
    38    29    24   ar
    39     9     4   ar
    40    36    32    1
    41    30    31    1
