@<TRIPOS>MOLECULE
*****
 41 44 0 0 0
SMALL
GASTEIGER

@<TRIPOS>ATOM
      1 C          62.6577   85.5370   11.2901 C.3     1  UNL1        0.0311
      2 C          63.4859   85.5418   12.5408 C.ar    1  UNL1       -0.0188
      3 C          63.9672   84.2475   13.1265 C.ar    1  UNL1       -0.0030
      4 C          64.7954   84.2523   14.3771 C.ar    1  UNL1        0.0013
      5 C          65.1423   85.5514   15.0421 C.ar    1  UNL1        0.0209
      6 C          64.6609   86.8457   14.4563 C.ar    1  UNL1        0.1021
      7 N          64.8430   88.2712   14.8863 N.ar    1  UNL1       -0.1690
      8 N          64.1274   89.1474   13.9013 N.ar    1  UNL1       -0.2472
      9 C          63.5030   88.2634   12.8627 C.ar    1  UNL1        0.0965
     10 C          63.8327   86.8409   13.2057 C.ar    1  UNL1        0.0342
     11 C          63.6203   82.9484   12.4616 C.ar    1  UNL1        0.0103
     12 C          64.1468   82.6438   11.0904 C.ar    1  UNL1        0.0008
     13 C          63.8000   81.3447   10.4255 C.ar    1  UNL1        0.0039
     14 C          62.9267   80.3504   11.1316 C.ar    1  UNL1        0.0723
     15 C          62.4002   80.6551   12.5027 C.ar    1  UNL1        0.0152
     16 C          62.7471   81.9542   13.1677 C.ar    1  UNL1        0.0576
     17 CL         62.2206   82.2589   14.5388 Cl      1  UNL1       -0.0823
     18 C          62.5798   79.0514   10.4666 C.3     1  UNL1        0.4186
     19 F          62.2330   77.7524    9.8016 F       1  UNL1       -0.1659
     20 F          62.6211   79.7259    9.1274 F       1  UNL1       -0.1659
     21 F          62.5385   78.3769   11.8057 F       1  UNL1       -0.1659
     22 C          64.0497   90.6447   13.9470 C.3     1  UNL1        0.1274
     23 C          64.7831   91.4651   12.9278 C.ar    1  UNL1       -0.0001
     24 C          66.0445   92.1821   13.3086 C.ar    1  UNL1       -0.0023
     25 C          66.7778   93.0025   12.2893 C.ar    1  UNL1        0.0042
     26 C          66.2498   93.1061   10.8891 C.ar    1  UNL1        0.0533
     27 C          64.9885   92.3893   10.5082 C.ar    1  UNL1        0.0042
     28 C          64.2551   91.5687   11.5276 C.ar    1  UNL1       -0.0023
     29 C          66.9832   93.9266    9.8698 C.2     1  UNL1        0.2459
     30 O          67.5801   93.2651    8.6631 O.2     1  UNL1       -0.2701
     31 N          67.1197   95.4086   10.0573 N.am    1  UNL1       -0.3005
     32 H          66.7280   95.8428   10.8493 H       1  UNL1        0.1498
     33 C          67.8531   96.2290    9.0379 C.3     1  UNL1        0.0956
     34 C          67.1618   96.6484    7.7745 C.3     1  UNL1        0.0629
     35 C          65.6659   96.7517    7.7369 C.2     1  UNL1        0.0520
     36 O          64.9469   96.7516    6.4204 O.co2   1  UNL1       -0.5491
     37 O          64.8888   96.8552    9.0158 O.co2   1  UNL1       -0.5491
     38 C          63.2387   91.3215   15.0120 C.3     1  UNL1        0.0289
     39 C          63.5972   91.1392   16.4571 C.3     1  UNL1        0.0023
     40 C          64.3716   92.2028   17.1776 C.3     1  UNL1        0.0001
     41 C          63.1813   89.8935   17.1818 C.3     1  UNL1        0.0001
@<TRIPOS>UNITY_ATOM_ATTR
36 1
charge -1
@<TRIPOS>BOND
     1     1     2    1
     2     2     3   ar
     3     3    11    1
     4    11    12   ar
     5    12    13   ar
     6    13    14   ar
     7    14    18    1
     8    18    19    1
     9    18    20    1
    10    18    21    1
    11    14    15   ar
    12    15    16   ar
    13    16    17    1
    14     3     4   ar
    15     4     5   ar
    16     5     6   ar
    17     6     7   ar
    18     7     8   ar
    19     8    22    1
    20    22    38    1
    21    38    39    1
    22    39    40    1
    23    39    41    1
    24    22    23    1
    25    23    24   ar
    26    24    25   ar
    27    25    26   ar
    28    26    29    1
    29    29    30    2
    30    29    31   am
    31    31    33    1
    32    33    34    1
    33    34    35    1
    34    35    36   ar
    35    35    37   ar
    36    26    27   ar
    37    27    28   ar
    38     8     9   ar
    39     9    10   ar
    40    10     2   ar
    41    16    11   ar
    42    10     6   ar
    43    28    23   ar
    44    31    32    1
@<TRIPOS>MOLECULE
*****
 41 44 0 0 0
SMALL
GASTEIGER

@<TRIPOS>ATOM
      1 C          63.0206   91.2682    3.3744 C.3     1  UNL1        0.0311
      2 C          61.5817   91.6340    3.5882 C.ar    1  UNL1       -0.0188
      3 C          60.9010   92.5824    2.6462 C.ar    1  UNL1       -0.0030
      4 C          59.4622   92.9482    2.8600 C.ar    1  UNL1        0.0013
      5 C          58.7039   92.3656    4.0158 C.ar    1  UNL1        0.0209
      6 C          59.3846   91.4173    4.9577 C.ar    1  UNL1        0.1021
      7 N          58.8973   90.6897    6.1756 N.ar    1  UNL1       -0.1690
      8 N          60.0351   89.8743    6.7145 N.ar    1  UNL1       -0.2472
      9 C          61.2256   90.0978    5.8297 C.ar    1  UNL1        0.0965
     10 C          60.8235   91.0515    4.7439 C.ar    1  UNL1        0.0342
     11 C          61.6593   93.1649    1.4905 C.ar    1  UNL1        0.0103
     12 C          62.6906   94.2277    1.7294 C.ar    1  UNL1        0.0008
     13 C          63.4489   94.8102    0.5738 C.ar    1  UNL1        0.0039
     14 C          63.1760   94.3301   -0.8208 C.ar    1  UNL1        0.0723
     15 C          62.1447   93.2673   -1.0598 C.ar    1  UNL1        0.0152
     16 C          61.3864   92.6848    0.0960 C.ar    1  UNL1        0.0576
     17 CL         60.3552   91.6221   -0.1430 Cl      1  UNL1       -0.0823
     18 C          63.9343   94.9126   -1.9765 C.3     1  UNL1        0.4186
     19 F          64.6926   95.4952   -3.1322 F       1  UNL1       -0.1659
     20 F          63.9061   93.5809   -2.6663 F       1  UNL1       -0.1659
     21 F          63.9624   96.2443   -1.2867 F       1  UNL1       -0.1659
     22 C          59.9904   88.9904    7.9256 C.3     1  UNL1        0.1274
     23 C          60.6998   89.4023    9.1813 C.ar    1  UNL1       -0.0001
     24 C          62.1657   89.1263    9.3397 C.ar    1  UNL1       -0.0023
     25 C          62.8751   89.5383   10.5954 C.ar    1  UNL1        0.0042
     26 C          62.1187   90.2262   11.6930 C.ar    1  UNL1        0.0533
     27 C          60.6528   90.5022   11.5347 C.ar    1  UNL1        0.0042
     28 C          59.9434   90.0902   10.2788 C.ar    1  UNL1       -0.0023
     29 C          62.8281   90.6381   12.9487 C.2     1  UNL1        0.2459
     30 O          63.7419   91.8276   12.9381 O.2     1  UNL1       -0.2701
     31 N          62.6238   89.8606   14.2151 N.am    1  UNL1       -0.3005
     32 H          62.0241   89.0799   14.2221 H       1  UNL1        0.1498
     33 C          63.3334   90.2726   15.4708 C.3     1  UNL1        0.0956
     34 C          63.1037   89.5151   16.7450 C.3     1  UNL1        0.0629
     35 C          63.1992   88.0182   16.7552 C.2     1  UNL1        0.0520
     36 O          63.6557   87.2874   15.5274 O.co2   1  UNL1       -0.5491
     37 O          62.8381   87.2521   17.9932 O.co2   1  UNL1       -0.5491
     38 C          59.2361   87.6946    7.8809 C.3     1  UNL1        0.0289
     39 C          59.9515   86.4012    8.1372 C.3     1  UNL1        0.0023
     40 C          60.1135   85.4017    7.0306 C.3     1  UNL1        0.0001
     41 C          60.5049   86.1075    9.5001 C.3     1  UNL1        0.0001
@<TRIPOS>UNITY_ATOM_ATTR
36 1
charge -1
@<TRIPOS>BOND
     1     1     2    1
     2     2     3   ar
     3     3    11    1
     4    11    12   ar
     5    12    13   ar
     6    13    14   ar
     7    14    18    1
     8    18    19    1
     9    18    20    1
    10    18    21    1
    11    14    15   ar
    12    15    16   ar
    13    16    17    1
    14     3     4   ar
    15     4     5   ar
    16     5     6   ar
    17     6     7   ar
    18     7     8   ar
    19     8    22    1
    20    22    38    1
    21    38    39    1
    22    39    40    1
    23    39    41    1
    24    22    23    1
    25    23    24   ar
    26    24    25   ar
    27    25    26   ar
    28    26    29    1
    29    29    30    2
    30    29    31   am
    31    31    33    1
    32    33    34    1
    33    34    35    1
    34    35    36   ar
    35    35    37   ar
    36    26    27   ar
    37    27    28   ar
    38     8     9   ar
    39     9    10   ar
    40    10     2   ar
    41    16    11   ar
    42    10     6   ar
    43    28    23   ar
    44    31    32    1
@<TRIPOS>MOLECULE
*****
 41 44 0 0 0
SMALL
GASTEIGER

@<TRIPOS>ATOM
      1 C          63.0511   91.2835    3.3497 C.3     1  UNL1        0.0311
      2 C          61.6191   91.6727    3.5686 C.ar    1  UNL1       -0.0188
      3 C          60.9571   92.6490    2.6420 C.ar    1  UNL1       -0.0030
      4 C          59.5252   93.0381    2.8609 C.ar    1  UNL1        0.0013
      5 C          58.7550   92.4509    4.0064 C.ar    1  UNL1        0.0209
      6 C          59.4170   91.4746    4.9330 C.ar    1  UNL1        0.1021
      7 N          58.9151   90.7364    6.1384 N.ar    1  UNL1       -0.1690
      8 N          60.0369   89.8910    6.6645 N.ar    1  UNL1       -0.2472
      9 C          61.2321   90.1067    5.7843 C.ar    1  UNL1        0.0965
     10 C          60.8490   91.0855    4.7141 C.ar    1  UNL1        0.0342
     11 C          61.7273   93.2361    1.4964 C.ar    1  UNL1        0.0103
     12 C          62.7750   94.2785    1.7531 C.ar    1  UNL1        0.0008
     13 C          63.5451   94.8656    0.6076 C.ar    1  UNL1        0.0039
     14 C          63.2676   94.4105   -0.7945 C.ar    1  UNL1        0.0723
     15 C          62.2200   93.3681   -1.0511 C.ar    1  UNL1        0.0152
     16 C          61.4498   92.7810    0.0945 C.ar    1  UNL1        0.0576
     17 CL         60.4021   91.7386   -0.1622 Cl      1  UNL1       -0.0823
     18 C          64.0378   94.9976   -1.9399 C.3     1  UNL1        0.4186
     19 F          64.8079   95.5848   -3.0854 F       1  UNL1       -0.1659
     20 F          62.8855   94.7172   -2.8584 F       1  UNL1       -0.1659
     21 F          65.1900   95.2781   -1.0214 F       1  UNL1       -0.1659
     22 C          59.9745   88.9883    7.8609 C.3     1  UNL1        0.1274
     23 C          60.7005   89.3602    9.1197 C.ar    1  UNL1       -0.0001
     24 C          62.1446   88.9916    9.2895 C.ar    1  UNL1       -0.0023
     25 C          62.8705   89.3635   10.5483 C.ar    1  UNL1        0.0042
     26 C          62.1525   90.1039   11.6374 C.ar    1  UNL1        0.0533
     27 C          60.7084   90.4725   11.4677 C.ar    1  UNL1        0.0042
     28 C          59.9824   90.1006   10.2088 C.ar    1  UNL1       -0.0023
     29 C          62.8785   90.4757   12.8962 C.2     1  UNL1        0.2459
     30 O          62.3487   90.0305   14.2270 O.2     1  UNL1       -0.2701
     31 N          64.1343   91.2929   12.8242 N.am    1  UNL1       -0.3005
     32 H          64.4821   91.5851   11.9508 H       1  UNL1        0.1498
     33 C          64.8603   91.6647   14.0832 C.3     1  UNL1        0.0956
     34 C          66.3234   91.3643   14.2217 C.3     1  UNL1        0.0629
     35 C          67.3335   92.2056   13.4994 C.2     1  UNL1        0.0520
     36 O          68.6497   92.5185   14.1471 O.co2   1  UNL1       -0.5491
     37 O          67.0273   92.7341   12.1294 O.co2   1  UNL1       -0.5491
     38 C          59.1860   87.7138    7.7985 C.3     1  UNL1        0.0289
     39 C          59.8599   86.4011    8.0684 C.3     1  UNL1        0.0023
     40 C          60.0254   85.4016    6.9622 C.3     1  UNL1        0.0001
     41 C          60.3681   86.0879    9.4445 C.3     1  UNL1        0.0001
@<TRIPOS>UNITY_ATOM_ATTR
36 1
charge -1
@<TRIPOS>BOND
     1     1     2    1
     2     2     3   ar
     3     3    11    1
     4    11    12   ar
     5    12    13   ar
     6    13    14   ar
     7    14    18    1
     8    18    19    1
     9    18    20    1
    10    18    21    1
    11    14    15   ar
    12    15    16   ar
    13    16    17    1
    14     3     4   ar
    15     4     5   ar
    16     5     6   ar
    17     6     7   ar
    18     7     8   ar
    19     8    22    1
    20    22    38    1
    21    38    39    1
    22    39    40    1
    23    39    41    1
    24    22    23    1
    25    23    24   ar
    26    24    25   ar
    27    25    26   ar
    28    26    29    1
    29    29    30    2
    30    29    31   am
    31    31    33    1
    32    33    34    1
    33    34    35    1
    34    35    36   ar
    35    35    37   ar
    36    26    27   ar
    37    27    28   ar
    38     8     9   ar
    39     9    10   ar
    40    10     2   ar
    41    16    11   ar
    42    10     6   ar
    43    28    23   ar
    44    31    32    1
@<TRIPOS>MOLECULE
*****
 41 44 0 0 0
SMALL
GASTEIGER

@<TRIPOS>ATOM
      1 C          64.5590   91.3902   10.1361 C.3     1  UNL1        0.0311
      2 C          63.4213   90.8521   10.9523 C.ar    1  UNL1       -0.0188
      3 C          63.4897   90.8887   12.4502 C.ar    1  UNL1       -0.0030
      4 C          62.3521   90.3507   13.2664 C.ar    1  UNL1        0.0013
      5 C          61.1459   89.7760   12.5846 C.ar    1  UNL1        0.0209
      6 C          61.0774   89.7394   11.0866 C.ar    1  UNL1        0.1021
      7 N          60.0259   89.2374   10.1420 N.ar    1  UNL1       -0.1690
      8 N          60.5138   89.4653    8.7420 N.ar    1  UNL1       -0.2472
      9 C          61.8667   90.1081    8.8213 C.ar    1  UNL1        0.0965
     10 C          62.2151   90.2774   10.2705 C.ar    1  UNL1        0.0342
     11 C          64.6960   91.4634   13.1320 C.ar    1  UNL1        0.0103
     12 C          65.2732   92.7660   12.6628 C.ar    1  UNL1        0.0008
     13 C          66.4794   93.3407   13.3445 C.ar    1  UNL1        0.0039
     14 C          67.1084   92.6129   14.4954 C.ar    1  UNL1        0.0723
     15 C          66.5312   91.3104   14.9647 C.ar    1  UNL1        0.0152
     16 C          65.3250   90.7357   14.2829 C.ar    1  UNL1        0.0576
     17 CL         64.7478   89.4331   14.7521 Cl      1  UNL1       -0.0823
     18 C          68.3146   93.1877   15.1771 C.3     1  UNL1        0.4186
     19 F          69.5208   93.7624   15.8588 F       1  UNL1       -0.1659
     20 F          67.4239   93.9114   16.1430 F       1  UNL1       -0.1659
     21 F          69.2053   92.4639   14.2113 F       1  UNL1       -0.1659
     22 C          59.7778   89.1124    7.4834 C.3     1  UNL1        0.1274
     23 C          59.7197   90.0918    6.3489 C.ar    1  UNL1       -0.0001
     24 C          60.9745   90.4694    5.6188 C.ar    1  UNL1       -0.0023
     25 C          60.9162   91.4488    4.4842 C.ar    1  UNL1        0.0042
     26 C          59.6033   92.0508    4.0797 C.ar    1  UNL1        0.0533
     27 C          58.3484   91.6733    4.8097 C.ar    1  UNL1        0.0042
     28 C          58.4067   90.6938    5.9443 C.ar    1  UNL1       -0.0023
     29 C          59.5451   93.0302    2.9451 C.2     1  UNL1        0.2459
     30 O          59.9770   94.4509    3.1578 O.2     1  UNL1       -0.2701
     31 N          59.0551   92.5890    1.5978 N.am    1  UNL1       -0.3005
     32 H          58.7716   91.6566    1.4581 H       1  UNL1        0.1498
     33 C          58.9970   93.5686    0.4632 C.3     1  UNL1        0.0956
     34 C          59.2108   93.0985   -0.9451 C.3     1  UNL1        0.0629
     35 C          58.0599   92.5506   -1.7357 C.2     1  UNL1        0.0520
     36 O          56.7579   92.2492   -1.0545 O.co2   1  UNL1       -0.5491
     37 O          58.2110   92.3040   -3.2076 O.co2   1  UNL1       -0.5491
     38 C          59.1000   87.7800    7.3595 C.3     1  UNL1        0.0289
     39 C          59.8148   86.5323    7.7868 C.3     1  UNL1        0.0023
     40 C          60.1884   86.3378    9.2264 C.3     1  UNL1        0.0001
     41 C          60.1560   85.4793    6.7746 C.3     1  UNL1        0.0001
@<TRIPOS>UNITY_ATOM_ATTR
36 1
charge -1
@<TRIPOS>BOND
     1     1     2    1
     2     2     3   ar
     3     3    11    1
     4    11    12   ar
     5    12    13   ar
     6    13    14   ar
     7    14    18    1
     8    18    19    1
     9    18    20    1
    10    18    21    1
    11    14    15   ar
    12    15    16   ar
    13    16    17    1
    14     3     4   ar
    15     4     5   ar
    16     5     6   ar
    17     6     7   ar
    18     7     8   ar
    19     8    22    1
    20    22    38    1
    21    38    39    1
    22    39    40    1
    23    39    41    1
    24    22    23    1
    25    23    24   ar
    26    24    25   ar
    27    25    26   ar
    28    26    29    1
    29    29    30    2
    30    29    31   am
    31    31    33    1
    32    33    34    1
    33    34    35    1
    34    35    36   ar
    35    35    37   ar
    36    26    27   ar
    37    27    28   ar
    38     8     9   ar
    39     9    10   ar
    40    10     2   ar
    41    16    11   ar
    42    10     6   ar
    43    28    23   ar
    44    31    32    1
@<TRIPOS>MOLECULE
*****
 41 44 0 0 0
SMALL
GASTEIGER

@<TRIPOS>ATOM
      1 C          62.6258   91.5185    3.4877 C.3     1  UNL1        0.0311
      2 C          61.1550   91.6895    3.7275 C.ar    1  UNL1       -0.0188
      3 C          60.3392   92.5458    2.8048 C.ar    1  UNL1       -0.0030
      4 C          58.8685   92.7168    3.0446 C.ar    1  UNL1        0.0013
      5 C          58.2134   92.0317    4.2072 C.ar    1  UNL1        0.0209
      6 C          59.0292   91.1755    5.1299 C.ar    1  UNL1        0.1021
      7 N          58.6629   90.3820    6.3490 N.ar    1  UNL1       -0.1690
      8 N          59.9073   89.7205    6.8626 N.ar    1  UNL1       -0.2472
      9 C          61.0427   90.1051    5.9609 C.ar    1  UNL1        0.0965
     10 C          60.5000   91.0044    4.8900 C.ar    1  UNL1        0.0342
     11 C          60.9943   93.2309    1.6422 C.ar    1  UNL1        0.0103
     12 C          61.6017   92.4179    0.5377 C.ar    1  UNL1        0.0008
     13 C          62.2568   93.1029   -0.6248 C.ar    1  UNL1        0.0039
     14 C          62.3045   94.6010   -0.6828 C.ar    1  UNL1        0.0723
     15 C          61.6971   95.4141    0.4217 C.ar    1  UNL1        0.0152
     16 C          61.0420   94.7289    1.5843 C.ar    1  UNL1        0.0576
     17 CL         60.4347   95.5420    2.6888 Cl      1  UNL1       -0.0823
     18 C          62.9596   95.2861   -1.8454 C.3     1  UNL1        0.4186
     19 F          63.6147   95.9712   -3.0079 F       1  UNL1       -0.1659
     20 F          64.2745   94.6715   -1.4666 F       1  UNL1       -0.1659
     21 F          61.6448   95.9007   -2.2241 F       1  UNL1       -0.1659
     22 C          60.0002   88.8306    8.0665 C.3     1  UNL1        0.1274
     23 C          60.7773   89.2754    9.2699 C.ar    1  UNL1       -0.0001
     24 C          60.1059   90.0854   10.3391 C.ar    1  UNL1       -0.0023
     25 C          60.8831   90.5302   11.5424 C.ar    1  UNL1        0.0042
     26 C          62.3318   90.1651   11.6766 C.ar    1  UNL1        0.0533
     27 C          63.0033   89.3551   10.6075 C.ar    1  UNL1        0.0042
     28 C          62.2260   88.9103    9.4041 C.ar    1  UNL1       -0.0023
     29 C          63.1090   90.6099   12.8800 C.2     1  UNL1        0.2459
     30 O          62.6909   90.1639   14.2497 O.2     1  UNL1       -0.2701
     31 N          64.3043   91.5008   12.7136 N.am    1  UNL1       -0.3005
     32 H          64.5787   91.7936   11.8146 H       1  UNL1        0.1498
     33 C          65.0814   91.9456   13.9171 C.3     1  UNL1        0.0956
     34 C          66.1026   93.0368   13.7890 C.3     1  UNL1        0.0629
     35 C          67.5059   92.8108   14.2684 C.2     1  UNL1        0.0520
     36 O          68.4499   91.9739   13.4570 O.co2   1  UNL1       -0.5491
     37 O          67.9651   93.4217   15.5591 O.co2   1  UNL1       -0.5491
     38 C          59.3158   87.4958    8.0671 C.3     1  UNL1        0.0289
     39 C          60.1223   86.2396    8.2143 C.3     1  UNL1        0.0023
     40 C          60.2807   85.3092    7.0485 C.3     1  UNL1        0.0001
     41 C          60.7702   85.9138    9.5273 C.3     1  UNL1        0.0001
@<TRIPOS>UNITY_ATOM_ATTR
36 1
charge -1
@<TRIPOS>BOND
     1     1     2    1
     2     2     3   ar
     3     3    11    1
     4    11    12   ar
     5    12    13   ar
     6    13    14   ar
     7    14    18    1
     8    18    19    1
     9    18    20    1
    10    18    21    1
    11    14    15   ar
    12    15    16   ar
    13    16    17    1
    14     3     4   ar
    15     4     5   ar
    16     5     6   ar
    17     6     7   ar
    18     7     8   ar
    19     8    22    1
    20    22    38    1
    21    38    39    1
    22    39    40    1
    23    39    41    1
    24    22    23    1
    25    23    24   ar
    26    24    25   ar
    27    25    26   ar
    28    26    29    1
    29    29    30    2
    30    29    31   am
    31    31    33    1
    32    33    34    1
    33    34    35    1
    34    35    36   ar
    35    35    37   ar
    36    26    27   ar
    37    27    28   ar
    38     8     9   ar
    39     9    10   ar
    40    10     2   ar
    41    16    11   ar
    42    10     6   ar
    43    28    23   ar
    44    31    32    1
