@<TRIPOS>MOLECULE
*****
 34 37 0 0 0
SMALL
GASTEIGER

@<TRIPOS>ATOM
      1 C          65.2231   91.7392   12.8326 C.3     1  UNL1        0.1092
      2 C          65.4699   92.6109   11.6372 C.3     1  UNL1        0.1598
      3 O          64.5991   92.4826   10.4226 O.3     1  UNL1       -0.3507
      4 C          63.4813   91.4825   10.4035 C.3     1  UNL1        0.1634
      5 C          63.2344   90.6108   11.5989 C.3     1  UNL1        0.1455
      6 N          64.1053   90.7391   12.8134 N.3     1  UNL1       -0.1499
      7 C          65.4954   92.2811   15.3588 C.3     1  UNL1        0.0015
      8 C          66.0939   91.8675   14.0471 C.3     1  UNL1        0.0189
      9 C          67.5633   91.5821   13.9500 C.3     1  UNL1        0.0015
     10 C          62.1166   89.6106   11.5798 C.3     1  UNL1        0.1550
     11 C          60.7278   89.0503   11.4943 C.3     1  UNL1        0.0453
     12 C          60.9479   90.5299   11.3820 C.3     1  UNL1        0.0453
     13 O          62.8972   88.3441   11.7709 O.3     1  UNL1       -0.4403
     14 C          62.5855   87.1378   10.9356 C.2     1  UNL1        0.4047
     15 O          62.1486   87.3050    9.5104 O.2     1  UNL1       -0.2262
     16 N          62.7109   85.7643   11.5254 N.am    1  UNL1       -0.2460
     17 C          63.1479   85.5971   12.9506 C.3     1  UNL1        0.0968
     18 C          63.2732   84.2236   13.5404 C.3     1  UNL1        0.0242
     19 C          62.9616   83.0174   12.7051 C.3     1  UNL1        0.0327
     20 C          62.5246   83.1845   11.2800 C.3     1  UNL1        0.0242
     21 C          62.3993   84.5580   10.6901 C.3     1  UNL1        0.0968
     22 C          63.0870   81.6439   13.2949 C.3     1  UNL1        0.1372
     23 O          62.4636   81.3390   14.6247 O.3     1  UNL1       -0.3820
     24 H          62.9085   81.8537   15.3160 H       1  UNL1        0.2104
     25 S          63.8584   89.8672   14.0089 S.O2    1  UNL1        0.0635
     26 O          62.7976   90.8164   14.4820 O.2     1  UNL1       -0.1528
     27 O          64.7309   88.8485   13.8560 O.2     1  UNL1       -0.1528
     28 C          63.6114   88.9955   15.2043 C.ar    1  UNL1        0.1223
     29 C          63.9045   87.5260   15.1343 C.ar    1  UNL1        0.0208
     30 C          63.6575   86.6542   16.3297 C.ar    1  UNL1        0.0128
     31 C          63.1175   87.2519   17.5951 C.ar    1  UNL1        0.0578
     32 CL         62.8705   86.3801   18.7905 Cl      1  UNL1       -0.0822
     33 C          62.8244   88.7213   17.6651 C.ar    1  UNL1        0.0128
     34 C          63.0714   89.5931   16.4697 C.ar    1  UNL1        0.0208
@<TRIPOS>BOND
     1     7     8    1
     2     8     9    1
     3     1     8    1
     4     1     2    1
     5     2     3    1
     6     3     4    1
     7     4     5    1
     8     5    10    1
     9    10    13    1
    10    13    14    1
    11    14    15    2
    12    14    16   am
    13    16    17    1
    14    17    18    1
    15    18    19    1
    16    19    22    1
    17    22    23    1
    18    19    20    1
    19    20    21    1
    20    10    11    1
    21    11    12    1
    22     5     6    1
    23     6    25    1
    24    25    26    2
    25    25    27    2
    26    25    28    1
    27    28    29   ar
    28    29    30   ar
    29    30    31   ar
    30    31    32    1
    31    31    33   ar
    32    33    34   ar
    33     6     1    1
    34    34    28   ar
    35    12    10    1
    36    21    16    1
    37    23    24    1
@<TRIPOS>MOLECULE
*****
 34 37 0 0 0
SMALL
GASTEIGER

@<TRIPOS>ATOM
      1 C          60.8501   87.1833    8.2053 C.3     1  UNL1        0.1092
      2 C          60.1504   88.0801    7.2275 C.3     1  UNL1        0.1598
      3 O          59.6834   89.4391    7.6577 O.3     1  UNL1       -0.3507
      4 C          59.9160   89.9012    9.0656 C.3     1  UNL1        0.1634
      5 C          60.6157   89.0044   10.0434 C.3     1  UNL1        0.1455
      6 N          61.0828   87.6454    9.6132 N.3     1  UNL1       -0.1499
      7 C          60.3644   84.8828    7.0999 C.3     1  UNL1        0.0015
      8 C          61.3171   85.8243    7.7751 C.3     1  UNL1        0.0189
      9 C          62.7368   85.4068    8.0201 C.3     1  UNL1        0.0015
     10 C          60.8485   89.4665   11.4514 C.3     1  UNL1        0.1550
     11 C          60.5607   89.9429   12.8443 C.3     1  UNL1        0.0453
     12 C          59.4304   89.6682   11.8971 C.3     1  UNL1        0.0453
     13 O          62.3473   89.4253   11.4945 O.3     1  UNL1       -0.4403
     14 C          63.1397   90.6708   11.2284 C.2     1  UNL1        0.4047
     15 O          62.9418   91.4263    9.9477 O.2     1  UNL1       -0.2262
     16 N          64.1300   91.1608   12.2428 N.am    1  UNL1       -0.2460
     17 C          64.3279   90.4053   13.5235 C.3     1  UNL1        0.0968
     18 C          65.3183   90.8953   14.5380 C.3     1  UNL1        0.0242
     19 C          66.1107   92.1407   14.2718 C.3     1  UNL1        0.0327
     20 C          65.9128   92.8962   12.9912 C.3     1  UNL1        0.0242
     21 C          64.9225   92.4063   11.9767 C.3     1  UNL1        0.0968
     22 C          67.1010   92.6307   15.2863 C.3     1  UNL1        0.1372
     23 O          66.6276   93.1054   16.6281 O.3     1  UNL1       -0.3820
     24 H          66.0969   93.9098   16.5177 H       1  UNL1        0.2104
     25 S          61.7825   86.7485   10.5910 S.O2    1  UNL1        0.0635
     26 O          63.1088   87.2499   10.1017 O.2     1  UNL1       -0.1528
     27 O          60.7766   86.1154   11.2312 O.2     1  UNL1       -0.1528
     28 C          62.4822   85.8517   11.5688 C.ar    1  UNL1        0.1223
     29 C          62.4730   84.3658   11.3631 C.ar    1  UNL1        0.0208
     30 C          63.1728   83.4690   12.3409 C.ar    1  UNL1        0.0128
     31 C          63.8817   84.0580   13.5243 C.ar    1  UNL1        0.0578
     32 CL         64.5815   83.1612   14.5021 Cl      1  UNL1       -0.0822
     33 C          63.8910   85.5438   13.7300 C.ar    1  UNL1        0.0128
     34 C          63.1912   86.4407   12.7522 C.ar    1  UNL1        0.0208
@<TRIPOS>BOND
     1     7     8    1
     2     8     9    1
     3     1     8    1
     4     1     2    1
     5     2     3    1
     6     3     4    1
     7     4     5    1
     8     5    10    1
     9    10    13    1
    10    13    14    1
    11    14    15    2
    12    14    16   am
    13    16    17    1
    14    17    18    1
    15    18    19    1
    16    19    22    1
    17    22    23    1
    18    19    20    1
    19    20    21    1
    20    10    11    1
    21    11    12    1
    22     5     6    1
    23     6    25    1
    24    25    26    2
    25    25    27    2
    26    25    28    1
    27    28    29   ar
    28    29    30   ar
    29    30    31   ar
    30    31    32    1
    31    31    33   ar
    32    33    34   ar
    33     6     1    1
    34    34    28   ar
    35    12    10    1
    36    21    16    1
    37    23    24    1
@<TRIPOS>MOLECULE
*****
 34 37 0 0 0
SMALL
GASTEIGER

@<TRIPOS>ATOM
      1 C          63.4500   85.5297   12.7400 C.3     1  UNL1        0.1092
      2 C          64.3151   85.1956   13.9190 C.3     1  UNL1        0.1598
      3 O          64.8030   86.2873   14.8246 O.3     1  UNL1       -0.3507
      4 C          64.4258   87.7131   14.5512 C.3     1  UNL1        0.1634
      5 C          63.5608   88.0472   13.3722 C.3     1  UNL1        0.1455
      6 N          63.0729   86.9555   12.4666 N.3     1  UNL1       -0.1499
      7 C          62.1329   83.3179   12.3891 C.3     1  UNL1        0.0015
      8 C          62.9622   84.4379   11.8344 C.3     1  UNL1        0.0189
      9 C          63.3035   84.4663   10.3740 C.3     1  UNL1        0.0015
     10 C          63.1836   89.4731   13.0988 C.3     1  UNL1        0.1550
     11 C          62.3454   90.7113   12.9791 C.3     1  UNL1        0.0453
     12 C          61.7251   89.4280   13.4465 C.3     1  UNL1        0.0453
     13 O          64.5110   90.0133   12.6561 O.3     1  UNL1       -0.4403
     14 C          65.0793   91.2368   13.3120 C.2     1  UNL1        0.4047
     15 O          65.2112   91.2946   14.8050 O.2     1  UNL1       -0.2262
     16 N          65.5155   92.4024   12.4748 N.am    1  UNL1       -0.2460
     17 C          65.3835   92.3446   10.9818 C.3     1  UNL1        0.0968
     18 C          65.8198   93.5104   10.1446 C.3     1  UNL1        0.0242
     19 C          66.3880   94.7338   10.8004 C.3     1  UNL1        0.0327
     20 C          66.5200   94.7917   12.2934 C.3     1  UNL1        0.0242
     21 C          66.0837   93.6260   13.1307 C.3     1  UNL1        0.0968
     22 C          66.8242   95.8995    9.9632 C.3     1  UNL1        0.1372
     23 O          67.9088   95.7252    8.9418 O.3     1  UNL1       -0.3820
     24 H          68.7455   95.5248    9.3896 H       1  UNL1        0.2104
     25 S          62.2078   87.2896   11.2876 S.O2    1  UNL1        0.0635
     26 O          61.0543   86.5805   11.9330 O.2     1  UNL1       -0.1528
     27 O          63.0267   87.9816   10.4672 O.2     1  UNL1       -0.1528
     28 C          61.3427   87.6237   10.1086 C.ar    1  UNL1        0.1223
     29 C          61.0896   89.0572    9.7463 C.ar    1  UNL1        0.0208
     30 C          60.2245   89.3913    8.5674 C.ar    1  UNL1        0.0128
     31 C          59.6125   88.2920    7.7507 C.ar    1  UNL1        0.0578
     32 CL         58.7474   88.6261    6.5717 Cl      1  UNL1       -0.0822
     33 C          59.8656   86.8586    8.1129 C.ar    1  UNL1        0.0128
     34 C          60.7307   86.5244    9.2919 C.ar    1  UNL1        0.0208
@<TRIPOS>BOND
     1     7     8    1
     2     8     9    1
     3     1     8    1
     4     1     2    1
     5     2     3    1
     6     3     4    1
     7     4     5    1
     8     5    10    1
     9    10    13    1
    10    13    14    1
    11    14    15    2
    12    14    16   am
    13    16    17    1
    14    17    18    1
    15    18    19    1
    16    19    22    1
    17    22    23    1
    18    19    20    1
    19    20    21    1
    20    10    11    1
    21    11    12    1
    22     5     6    1
    23     6    25    1
    24    25    26    2
    25    25    27    2
    26    25    28    1
    27    28    29   ar
    28    29    30   ar
    29    30    31   ar
    30    31    32    1
    31    31    33   ar
    32    33    34   ar
    33     6     1    1
    34    34    28   ar
    35    12    10    1
    36    21    16    1
    37    23    24    1
@<TRIPOS>MOLECULE
*****
 34 37 0 0 0
SMALL
GASTEIGER

@<TRIPOS>ATOM
      1 C          60.7611   87.3066    8.3144 C.3     1  UNL1        0.1092
      2 C          60.0932   88.3090    7.4205 C.3     1  UNL1        0.1598
      3 O          59.7564   89.6737    7.9439 O.3     1  UNL1       -0.3507
      4 C          60.0874   90.0361    9.3613 C.3     1  UNL1        0.1634
      5 C          60.7552   89.0337   10.2553 C.3     1  UNL1        0.1455
      6 N          61.0921   87.6690    9.7318 N.3     1  UNL1       -0.1499
      7 C          62.5077   85.4355    7.8690 C.3     1  UNL1        0.0015
      8 C          61.0979   85.9418    7.7910 C.3     1  UNL1        0.0189
      9 C          60.0249   85.0834    7.1896 C.3     1  UNL1        0.0015
     10 C          61.0863   89.3961   11.6727 C.3     1  UNL1        0.1550
     11 C          60.9010   89.8273   13.0974 C.3     1  UNL1        0.0453
     12 C          59.7145   89.7202   12.1859 C.3     1  UNL1        0.0453
     13 O          62.5729   89.1978   11.6518 O.3     1  UNL1       -0.4403
     14 C          63.4366   89.8927   12.6624 C.2     1  UNL1        0.4047
     15 O          63.5185   89.3689   14.0656 O.2     1  UNL1       -0.2262
     16 N          64.2182   91.1112   12.2699 N.am    1  UNL1       -0.2460
     17 C          64.1362   91.6350   10.8667 C.3     1  UNL1        0.0968
     18 C          64.9179   92.8536   10.4742 C.3     1  UNL1        0.0242
     19 C          65.7814   93.5484   11.4848 C.3     1  UNL1        0.0327
     20 C          65.8634   93.0247   12.8880 C.3     1  UNL1        0.0242
     21 C          65.0818   91.8061   13.2806 C.3     1  UNL1        0.0968
     22 C          66.5631   94.7671   11.0923 C.3     1  UNL1        0.1372
     23 O          67.7032   94.6474   10.1250 O.3     1  UNL1       -0.3820
     24 H          68.4130   94.1212   10.5253 H       1  UNL1        0.2104
     25 S          61.7599   86.6666   10.6259 S.O2    1  UNL1        0.0635
     26 O          63.0752   86.9526    9.9639 O.2     1  UNL1       -0.1528
     27 O          60.7567   86.1986   11.3986 O.2     1  UNL1       -0.1528
     28 C          62.4278   85.6643   11.5198 C.ar    1  UNL1        0.1223
     29 C          63.1429   86.1215   12.7567 C.ar    1  UNL1        0.0208
     30 C          63.8108   85.1192   13.6507 C.ar    1  UNL1        0.0128
     31 C          63.7636   83.6596   13.3079 C.ar    1  UNL1        0.0578
     32 CL         64.4315   82.6573   14.2019 Cl      1  UNL1       -0.0822
     33 C          63.0486   83.2024   12.0711 C.ar    1  UNL1        0.0128
     34 C          62.3807   84.2047   11.1771 C.ar    1  UNL1        0.0208
@<TRIPOS>BOND
     1     7     8    1
     2     8     9    1
     3     1     8    1
     4     1     2    1
     5     2     3    1
     6     3     4    1
     7     4     5    1
     8     5    10    1
     9    10    13    1
    10    13    14    1
    11    14    15    2
    12    14    16   am
    13    16    17    1
    14    17    18    1
    15    18    19    1
    16    19    22    1
    17    22    23    1
    18    19    20    1
    19    20    21    1
    20    10    11    1
    21    11    12    1
    22     5     6    1
    23     6    25    1
    24    25    26    2
    25    25    27    2
    26    25    28    1
    27    28    29   ar
    28    29    30   ar
    29    30    31   ar
    30    31    32    1
    31    31    33   ar
    32    33    34   ar
    33     6     1    1
    34    34    28   ar
    35    12    10    1
    36    21    16    1
    37    23    24    1
@<TRIPOS>MOLECULE
*****
 34 37 0 0 0
SMALL
GASTEIGER

@<TRIPOS>ATOM
      1 C          63.4961   85.3799   12.5896 C.3     1  UNL1        0.1092
      2 C          64.3837   85.0114   13.7412 C.3     1  UNL1        0.1598
      3 O          64.8447   86.0680   14.7009 O.3     1  UNL1       -0.3507
      4 C          64.4181   87.4931   14.5091 C.3     1  UNL1        0.1634
      5 C          63.5304   87.8617   13.3575 C.3     1  UNL1        0.1455
      6 N          63.0694   86.8051   12.3977 N.3     1  UNL1       -0.1499
      7 C          63.4622   84.3774   10.1930 C.3     1  UNL1        0.0015
      8 C          63.0351   84.3233   11.6299 C.3     1  UNL1        0.0189
      9 C          62.1471   83.2126   12.1071 C.3     1  UNL1        0.0015
     10 C          63.1037   89.2869   13.1655 C.3     1  UNL1        0.1550
     11 C          62.3833   90.5842   13.3844 C.3     1  UNL1        0.0453
     12 C          62.1097   89.4138   14.2818 C.3     1  UNL1        0.0453
     13 O          63.9495   89.6549   11.9827 O.3     1  UNL1       -0.4403
     14 C          64.3576   91.0822   11.7675 C.2     1  UNL1        0.4047
     15 O          63.8506   91.8353   10.5734 O.2     1  UNL1       -0.2262
     16 N          65.2726   91.7564   12.7463 N.am    1  UNL1       -0.2460
     17 C          65.7797   91.0033   13.9403 C.3     1  UNL1        0.0968
     18 C          66.6948   91.6775   14.9192 C.3     1  UNL1        0.0242
     19 C          67.1028   93.1047   14.7040 C.3     1  UNL1        0.0327
     20 C          66.5958   93.8579   13.5100 C.3     1  UNL1        0.0242
     21 C          65.6807   93.1837   12.5311 C.3     1  UNL1        0.0968
     22 C          68.0179   93.7789   15.6828 C.3     1  UNL1        0.1372
     23 O          69.1343   93.0064   16.3206 O.3     1  UNL1       -0.3820
     24 H          68.7641   92.3164   16.8932 H       1  UNL1        0.2104
     25 S          62.1817   87.1736   11.2461 S.O2    1  UNL1        0.0635
     26 O          60.9823   86.7251   12.0271 O.2     1  UNL1       -0.1528
     27 O          63.0359   87.6456   10.3133 O.2     1  UNL1       -0.1528
     28 C          61.2941   87.5422   10.0945 C.ar    1  UNL1        0.1223
     29 C          61.0530   88.9857    9.7654 C.ar    1  UNL1        0.0208
     30 C          60.1653   89.3543    8.6139 C.ar    1  UNL1        0.0128
     31 C          59.5187   88.2794    7.7914 C.ar    1  UNL1        0.0578
     32 CL         58.6310   88.6480    6.6398 Cl      1  UNL1       -0.0822
     33 C          59.7597   86.8360    8.1204 C.ar    1  UNL1        0.0128
     34 C          60.6474   86.4673    9.2720 C.ar    1  UNL1        0.0208
@<TRIPOS>BOND
     1     7     8    1
     2     8     9    1
     3     1     8    1
     4     1     2    1
     5     2     3    1
     6     3     4    1
     7     4     5    1
     8     5    10    1
     9    10    13    1
    10    13    14    1
    11    14    15    2
    12    14    16   am
    13    16    17    1
    14    17    18    1
    15    18    19    1
    16    19    22    1
    17    22    23    1
    18    19    20    1
    19    20    21    1
    20    10    11    1
    21    11    12    1
    22     5     6    1
    23     6    25    1
    24    25    26    2
    25    25    27    2
    26    25    28    1
    27    28    29   ar
    28    29    30   ar
    29    30    31   ar
    30    31    32    1
    31    31    33   ar
    32    33    34   ar
    33     6     1    1
    34    34    28   ar
    35    12    10    1
    36    21    16    1
    37    23    24    1
@<TRIPOS>MOLECULE
*****
 34 37 0 0 0
SMALL
GASTEIGER

@<TRIPOS>ATOM
      1 C          62.2319   87.6576    9.9873 C.3     1  UNL1        0.1092
      2 C          62.2932   89.0489    9.4302 C.3     1  UNL1        0.1598
      3 O          62.7408   90.1861   10.3000 O.3     1  UNL1       -0.3507
      4 C          63.1272   89.9319   11.7269 C.3     1  UNL1        0.1634
      5 C          63.0660   88.5405   12.2839 C.3     1  UNL1        0.1455
      6 N          62.6183   87.4034   11.4141 N.3     1  UNL1       -0.1499
      7 C          62.7990   85.6095    8.4927 C.3     1  UNL1        0.0015
      8 C          61.7843   86.5205    9.1175 C.3     1  UNL1        0.0189
      9 C          60.3218   86.2943    8.8724 C.3     1  UNL1        0.0015
     10 C          63.4524   88.2862   13.7109 C.3     1  UNL1        0.1550
     11 C          64.1295   87.6713   14.8997 C.3     1  UNL1        0.0453
     12 C          64.4239   87.1592   13.5208 C.3     1  UNL1        0.0453
     13 O          62.6150   89.3249   14.3964 O.3     1  UNL1       -0.4403
     14 C          63.1600   90.0647   15.5821 C.2     1  UNL1        0.4047
     15 O          62.5502   89.8623   16.9375 O.2     1  UNL1       -0.2262
     16 N          64.3147   91.0069   15.4124 N.am    1  UNL1       -0.2460
     17 C          64.9245   91.2094   14.0570 C.3     1  UNL1        0.0968
     18 C          66.0793   92.1516   13.8872 C.3     1  UNL1        0.0242
     19 C          66.6242   92.8914   15.0728 C.3     1  UNL1        0.0327
     20 C          66.0145   92.6890   16.4282 C.3     1  UNL1        0.0242
     21 C          64.8597   91.7467   16.5980 C.3     1  UNL1        0.0968
     22 C          67.7790   93.8336   14.9031 C.3     1  UNL1        0.1372
     23 O          68.5647   94.2802   16.1002 O.3     1  UNL1       -0.3820
     24 H          67.9992   94.8185   16.6757 H       1  UNL1        0.2104
     25 S          62.5571   86.0120   11.9713 S.O2    1  UNL1        0.0635
     26 O          61.1398   86.2471   12.4025 O.2     1  UNL1       -0.1528
     27 O          63.7814   85.5037   11.7160 O.2     1  UNL1       -0.1528
     28 C          62.4958   84.6207   12.5284 C.ar    1  UNL1        0.1223
     29 C          62.3747   84.4102   14.0087 C.ar    1  UNL1        0.0208
     30 C          62.3134   83.0188   14.5658 C.ar    1  UNL1        0.0128
     31 C          62.3732   81.8380   13.6428 C.ar    1  UNL1        0.0578
     32 CL         62.3120   80.4467   14.1999 Cl      1  UNL1       -0.0822
     33 C          62.4943   82.0485   12.1626 C.ar    1  UNL1        0.0128
     34 C          62.5556   83.4398   11.6054 C.ar    1  UNL1        0.0208
@<TRIPOS>BOND
     1     7     8    1
     2     8     9    1
     3     1     8    1
     4     1     2    1
     5     2     3    1
     6     3     4    1
     7     4     5    1
     8     5    10    1
     9    10    13    1
    10    13    14    1
    11    14    15    2
    12    14    16   am
    13    16    17    1
    14    17    18    1
    15    18    19    1
    16    19    22    1
    17    22    23    1
    18    19    20    1
    19    20    21    1
    20    10    11    1
    21    11    12    1
    22     5     6    1
    23     6    25    1
    24    25    26    2
    25    25    27    2
    26    25    28    1
    27    28    29   ar
    28    29    30   ar
    29    30    31   ar
    30    31    32    1
    31    31    33   ar
    32    33    34   ar
    33     6     1    1
    34    34    28   ar
    35    12    10    1
    36    21    16    1
    37    23    24    1
@<TRIPOS>MOLECULE
*****
 34 37 0 0 0
SMALL
GASTEIGER

@<TRIPOS>ATOM
      1 C          63.4324   84.3352   10.9856 C.3     1  UNL1        0.1092
      2 C          63.4366   84.1261    9.5003 C.3     1  UNL1        0.1598
      3 O          62.8476   85.1667    8.5946 O.3     1  UNL1       -0.3507
      4 C          62.2544   86.4165    9.1744 C.3     1  UNL1        0.1634
      5 C          62.2502   86.6256   10.6597 C.3     1  UNL1        0.1455
      6 N          62.8392   85.5849   11.5653 N.3     1  UNL1       -0.1499
      7 C          65.1337   83.6592   12.8291 C.3     1  UNL1        0.0015
      8 C          64.0214   83.2945   11.8912 C.3     1  UNL1        0.0189
      9 C          63.4981   81.8892   11.8589 C.3     1  UNL1        0.0015
     10 C          61.6569   87.8754   11.2394 C.3     1  UNL1        0.1550
     11 C          60.6377   88.9124   11.6081 C.3     1  UNL1        0.0453
     12 C          60.2242   87.6966   10.8328 C.3     1  UNL1        0.0453
     13 O          62.8837   88.4882   11.8474 O.3     1  UNL1       -0.4403
     14 C          63.3532   89.8375   11.3903 C.2     1  UNL1        0.4047
     15 O          62.9633   90.3477   10.0347 O.2     1  UNL1       -0.2262
     16 N          64.2126   90.6766   12.2888 N.am    1  UNL1       -0.2460
     17 C          64.6026   90.1664   13.6444 C.3     1  UNL1        0.0968
     18 C          65.4621   91.0055   14.5428 C.3     1  UNL1        0.0242
     19 C          65.9316   92.3547   14.0858 C.3     1  UNL1        0.0327
     20 C          65.5417   92.8650   12.7302 C.3     1  UNL1        0.0242
     21 C          64.6822   92.0259   11.8317 C.3     1  UNL1        0.0968
     22 C          66.7911   93.1938   14.9843 C.3     1  UNL1        0.1372
     23 O          66.5699   93.1726   16.4677 O.3     1  UNL1       -0.3820
     24 H          65.7017   93.5545   16.6707 H       1  UNL1        0.2104
     25 S          62.8349   85.7941   13.0507 S.O2    1  UNL1        0.0635
     26 O          61.6713   84.8564   13.1793 O.2     1  UNL1       -0.1528
     27 O          63.8502   86.6586   13.2617 O.2     1  UNL1       -0.1528
     28 C          62.8307   86.0033   14.5360 C.ar    1  UNL1        0.1223
     29 C          62.1993   84.9822   15.4354 C.ar    1  UNL1        0.0208
     30 C          62.1951   85.1913   16.9207 C.ar    1  UNL1        0.0128
     31 C          62.8221   86.4215   17.5067 C.ar    1  UNL1        0.0578
     32 CL         62.8178   86.6307   18.9920 Cl      1  UNL1       -0.0822
     33 C          63.4534   87.4426   16.6074 C.ar    1  UNL1        0.0128
     34 C          63.4577   87.2335   15.1220 C.ar    1  UNL1        0.0208
@<TRIPOS>BOND
     1     7     8    1
     2     8     9    1
     3     1     8    1
     4     1     2    1
     5     2     3    1
     6     3     4    1
     7     4     5    1
     8     5    10    1
     9    10    13    1
    10    13    14    1
    11    14    15    2
    12    14    16   am
    13    16    17    1
    14    17    18    1
    15    18    19    1
    16    19    22    1
    17    22    23    1
    18    19    20    1
    19    20    21    1
    20    10    11    1
    21    11    12    1
    22     5     6    1
    23     6    25    1
    24    25    26    2
    25    25    27    2
    26    25    28    1
    27    28    29   ar
    28    29    30   ar
    29    30    31   ar
    30    31    32    1
    31    31    33   ar
    32    33    34   ar
    33     6     1    1
    34    34    28   ar
    35    12    10    1
    36    21    16    1
    37    23    24    1
@<TRIPOS>MOLECULE
*****
 34 37 0 0 0
SMALL
GASTEIGER

@<TRIPOS>ATOM
      1 C          64.5258   91.9296   10.9613 C.3     1  UNL1        0.1092
      2 C          63.4147   91.5332   10.0349 C.3     1  UNL1        0.1598
      3 O          62.4050   90.5121   10.4684 O.3     1  UNL1       -0.3507
      4 C          62.5066   89.8873   11.8282 C.3     1  UNL1        0.1634
      5 C          63.6177   90.2836   12.7546 C.3     1  UNL1        0.1455
      6 N          64.6273   91.3048   12.3211 N.3     1  UNL1       -0.1499
      7 C          66.8650   92.5101    9.9913 C.3     1  UNL1        0.0015
      8 C          65.5354   92.9508   10.5278 C.3     1  UNL1        0.0189
      9 C          65.2154   94.4126   10.6307 C.3     1  UNL1        0.0015
     10 C          63.7193   89.6588   14.1146 C.3     1  UNL1        0.1550
     11 C          63.6788   89.5173   15.6073 C.3     1  UNL1        0.0453
     12 C          63.3454   90.8334   14.9694 C.3     1  UNL1        0.0453
     13 O          64.1285   88.2674   13.7319 O.3     1  UNL1       -0.4403
     14 C          63.8150   87.1166   14.6416 C.2     1  UNL1        0.4047
     15 O          63.8622   87.3022   16.1293 O.2     1  UNL1       -0.2262
     16 N          63.4544   85.7803   14.0636 N.am    1  UNL1       -0.2460
     17 C          63.4071   85.5947   12.5758 C.3     1  UNL1        0.0968
     18 C          63.0465   84.2583   11.9978 C.3     1  UNL1        0.0242
     19 C          62.7330   83.1076   12.9074 C.3     1  UNL1        0.0327
     20 C          62.7802   83.2931   14.3951 C.3     1  UNL1        0.0242
     21 C          63.1409   84.6295   14.9732 C.3     1  UNL1        0.0968
     22 C          62.3724   81.7713   12.3294 C.3     1  UNL1        0.1372
     23 O          63.1003   80.5389   12.7780 O.3     1  UNL1       -0.3820
     24 H          64.0278   80.5916   12.4988 H       1  UNL1        0.2104
     25 S          65.7385   91.7012   13.2476 S.O2    1  UNL1        0.0635
     26 O          64.9093   92.8444   13.7529 O.2     1  UNL1       -0.1528
     27 O          66.7046   90.7891   13.0080 O.2     1  UNL1       -0.1528
     28 C          66.8496   92.0976   14.1740 C.ar    1  UNL1        0.1223
     29 C          66.5332   92.6258   15.5419 C.ar    1  UNL1        0.0208
     30 C          67.6443   93.0222   16.4683 C.ar    1  UNL1        0.0128
     31 C          69.0718   92.8904   16.0269 C.ar    1  UNL1        0.0578
     32 CL         70.1829   93.2868   16.9533 Cl      1  UNL1       -0.0822
     33 C          69.3883   92.3622   14.6592 C.ar    1  UNL1        0.0128
     34 C          68.2771   91.9658   13.7326 C.ar    1  UNL1        0.0208
@<TRIPOS>BOND
     1     7     8    1
     2     8     9    1
     3     1     8    1
     4     1     2    1
     5     2     3    1
     6     3     4    1
     7     4     5    1
     8     5    10    1
     9    10    13    1
    10    13    14    1
    11    14    15    2
    12    14    16   am
    13    16    17    1
    14    17    18    1
    15    18    19    1
    16    19    22    1
    17    22    23    1
    18    19    20    1
    19    20    21    1
    20    10    11    1
    21    11    12    1
    22     5     6    1
    23     6    25    1
    24    25    26    2
    25    25    27    2
    26    25    28    1
    27    28    29   ar
    28    29    30   ar
    29    30    31   ar
    30    31    32    1
    31    31    33   ar
    32    33    34   ar
    33     6     1    1
    34    34    28   ar
    35    12    10    1
    36    21    16    1
    37    23    24    1
