@<TRIPOS>MOLECULE
*****
 25 27 0 0 0
SMALL
GASTEIGER

@<TRIPOS>ATOM
      1 N          62.6914   89.9129   14.4055 N.pl3   1  UNL1       -0.3413
      2 C          63.5665   90.7637   13.5335 C.ar    1  UNL1        0.1477
      3 N          64.6165   91.6389   14.1510 N.ar    1  UNL1       -0.2263
      4 C          65.4916   92.4897   13.2790 C.ar    1  UNL1        0.1194
      5 C          65.3166   92.4653   11.7895 C.ar    1  UNL1        0.1006
      6 N          64.2665   91.5901   11.1720 N.ar    1  UNL1       -0.2364
      7 C          63.3915   90.7393   12.0440 C.ar    1  UNL1        0.1657
      8 H          62.8063   89.9289   15.3832 H       1  UNL1        0.1438
      9 H          62.0022   89.3385   14.0002 H       1  UNL1        0.1438
     10 C          66.1917   93.3161   10.9175 C.ar    1  UNL1        0.0192
     11 C          67.2746   92.6823   10.0957 C.ar    1  UNL1        0.0015
     12 C          68.1496   93.5331    9.2236 C.ar    1  UNL1        0.0000
     13 C          67.9418   95.0177    9.1735 C.ar    1  UNL1        0.0000
     14 C          66.8589   95.6516    9.9953 C.ar    1  UNL1        0.0000
     15 C          65.9838   94.8008   10.8674 C.ar    1  UNL1        0.0015
     16 C          62.3413   89.8641   11.4264 C.2     1  UNL1        0.2700
     17 O          61.0845   89.5524   12.1835 O.2     1  UNL1       -0.2681
     18 N          62.5481   89.3007   10.0517 N.am    1  UNL1       -0.2791
     19 H          63.3730   89.5053    9.5548 H       1  UNL1        0.1552
     20 C          61.4981   88.4255    9.4341 C.ar    1  UNL1        0.0506
     21 C          60.3035   89.0426    8.7692 C.ar    1  UNL1        0.0147
     22 C          59.2534   88.1673    8.1515 C.ar    1  UNL1        0.0013
     23 C          59.3980   86.6751    8.1989 C.ar    1  UNL1        0.0001
     24 C          60.5926   86.0580    8.8639 C.ar    1  UNL1        0.0013
     25 C          61.6426   86.9332    9.4815 C.ar    1  UNL1        0.0147
@<TRIPOS>BOND
     1     1     2    1
     2     2     3   ar
     3     3     4   ar
     4     4     5   ar
     5     5    10    1
     6    10    11   ar
     7    11    12   ar
     8    12    13   ar
     9    13    14   ar
    10    14    15   ar
    11     5     6   ar
    12     6     7   ar
    13     7    16    1
    14    16    17    2
    15    16    18   am
    16    18    20    1
    17    20    21   ar
    18    21    22   ar
    19    22    23   ar
    20    23    24   ar
    21    24    25   ar
    22     7     2   ar
    23    25    20   ar
    24    15    10   ar
    25     1     8    1
    26     1     9    1
    27    18    19    1
@<TRIPOS>MOLECULE
*****
 25 27 0 0 0
SMALL
GASTEIGER

@<TRIPOS>ATOM
      1 N          62.6180   85.8660   17.3446 N.pl3   1  UNL1       -0.3413
      2 C          63.1123   86.9920   16.4857 C.ar    1  UNL1        0.1477
      3 N          63.0523   88.4030   16.9911 N.ar    1  UNL1       -0.2263
      4 C          63.5466   89.5290   16.1321 C.ar    1  UNL1        0.1194
      5 C          64.1008   89.2440   14.7677 C.ar    1  UNL1        0.1006
      6 N          64.1608   87.8330   14.2623 N.ar    1  UNL1       -0.2364
      7 C          63.6666   86.7070   15.1213 C.ar    1  UNL1        0.1657
      8 H          62.2542   86.0531   18.2401 H       1  UNL1        0.1438
      9 H          62.6574   84.9399   17.0129 H       1  UNL1        0.1438
     10 C          64.5951   90.3700   13.9087 C.ar    1  UNL1        0.0192
     11 C          63.9029   90.6871   12.6164 C.ar    1  UNL1        0.0015
     12 C          64.3971   91.8131   11.7574 C.ar    1  UNL1        0.0000
     13 C          65.5836   92.6220   12.1908 C.ar    1  UNL1        0.0000
     14 C          66.2759   92.3049   13.4831 C.ar    1  UNL1        0.0000
     15 C          65.7816   91.1789   14.3421 C.ar    1  UNL1        0.0015
     16 C          63.7266   85.2960   14.6159 C.2     1  UNL1        0.2700
     17 O          65.0032   84.5154   14.7207 O.2     1  UNL1       -0.2681
     18 N          62.5100   84.6655   14.0056 N.am    1  UNL1       -0.2791
     19 H          61.6721   85.1779   13.9368 H       1  UNL1        0.1552
     20 C          62.5699   83.2546   13.5002 C.ar    1  UNL1        0.0506
     21 C          63.0321   82.9784   12.1001 C.ar    1  UNL1        0.0147
     22 C          63.0921   81.5673   11.5947 C.ar    1  UNL1        0.0013
     23 C          62.6898   80.4325   12.4893 C.ar    1  UNL1        0.0001
     24 C          62.2276   80.7087   13.8894 C.ar    1  UNL1        0.0013
     25 C          62.1677   82.1197   14.3948 C.ar    1  UNL1        0.0147
@<TRIPOS>BOND
     1     1     2    1
     2     2     3   ar
     3     3     4   ar
     4     4     5   ar
     5     5    10    1
     6    10    11   ar
     7    11    12   ar
     8    12    13   ar
     9    13    14   ar
    10    14    15   ar
    11     5     6   ar
    12     6     7   ar
    13     7    16    1
    14    16    17    2
    15    16    18   am
    16    18    20    1
    17    20    21   ar
    18    21    22   ar
    19    22    23   ar
    20    23    24   ar
    21    24    25   ar
    22     7     2   ar
    23    25    20   ar
    24    15    10   ar
    25     1     8    1
    26     1     9    1
    27    18    19    1
@<TRIPOS>MOLECULE
*****
 25 27 0 0 0
SMALL
GASTEIGER

@<TRIPOS>ATOM
      1 N          60.7329   90.5781   11.3365 N.pl3   1  UNL1       -0.3413
      2 C          61.2329   89.1640   11.3193 C.ar    1  UNL1        0.1477
      3 N          60.4522   88.1010   10.6049 N.ar    1  UNL1       -0.2263
      4 C          60.9522   86.6869   10.5878 C.ar    1  UNL1        0.1194
      5 C          62.2330   86.3358   11.2851 C.ar    1  UNL1        0.1006
      6 N          63.0137   87.3988   11.9995 N.ar    1  UNL1       -0.2364
      7 C          62.5137   88.8129   12.0166 C.ar    1  UNL1        0.1657
      8 H          59.8923   90.8085   10.8788 H       1  UNL1        0.1438
      9 H          61.2454   91.2758   11.8054 H       1  UNL1        0.1438
     10 C          62.7330   84.9217   11.2680 C.ar    1  UNL1        0.0192
     11 C          63.4019   84.3775   10.0407 C.ar    1  UNL1        0.0015
     12 C          63.9020   82.9634   10.0236 C.ar    1  UNL1        0.0000
     13 C          63.7331   82.0935   11.2338 C.ar    1  UNL1        0.0000
     14 C          63.0642   82.6377   12.4611 C.ar    1  UNL1        0.0000
     15 C          62.5641   84.0518   12.4782 C.ar    1  UNL1        0.0015
     16 C          63.2945   89.8759   12.7311 C.2     1  UNL1        0.2700
     17 O          63.3843   91.2570   12.1528 O.2     1  UNL1       -0.2681
     18 N          63.9856   89.5577   14.0239 N.am    1  UNL1       -0.2791
     19 H          63.9266   88.6512   14.4034 H       1  UNL1        0.1552
     20 C          64.7664   90.6206   14.7384 C.ar    1  UNL1        0.0506
     21 C          66.1222   91.0205   14.2364 C.ar    1  UNL1        0.0147
     22 C          66.9030   92.0835   14.9510 C.ar    1  UNL1        0.0013
     23 C          66.3279   92.7465   16.1674 C.ar    1  UNL1        0.0001
     24 C          64.9721   92.3467   16.6693 C.ar    1  UNL1        0.0013
     25 C          64.1914   91.2838   15.9548 C.ar    1  UNL1        0.0147
@<TRIPOS>BOND
     1     1     2    1
     2     2     3   ar
     3     3     4   ar
     4     4     5   ar
     5     5    10    1
     6    10    11   ar
     7    11    12   ar
     8    12    13   ar
     9    13    14   ar
    10    14    15   ar
    11     5     6   ar
    12     6     7   ar
    13     7    16    1
    14    16    17    2
    15    16    18   am
    16    18    20    1
    17    20    21   ar
    18    21    22   ar
    19    22    23   ar
    20    23    24   ar
    21    24    25   ar
    22     7     2   ar
    23    25    20   ar
    24    15    10   ar
    25     1     8    1
    26     1     9    1
    27    18    19    1
@<TRIPOS>MOLECULE
*****
 25 27 0 0 0
SMALL
GASTEIGER

@<TRIPOS>ATOM
      1 N          59.9180   87.5341    9.8553 N.pl3   1  UNL1       -0.3413
      2 C          60.9656   88.3441   10.5599 C.ar    1  UNL1        0.1477
      3 N          60.9348   89.8416   10.4808 N.ar    1  UNL1       -0.2263
      4 C          61.9824   90.6516   11.1854 C.ar    1  UNL1        0.1194
      5 C          63.0608   89.9641   11.9690 C.ar    1  UNL1        0.1006
      6 N          63.0916   88.4665   12.0481 N.ar    1  UNL1       -0.2364
      7 C          62.0440   87.6565   11.3435 C.ar    1  UNL1        0.1657
      8 H          59.2102   87.9854    9.3409 H       1  UNL1        0.1438
      9 H          59.9383   86.5511    9.9072 H       1  UNL1        0.1438
     10 C          64.1084   90.7741   12.6736 C.ar    1  UNL1        0.0192
     11 C          64.7060   91.9746   12.0017 C.ar    1  UNL1        0.0015
     12 C          65.7536   92.7846   12.7063 C.ar    1  UNL1        0.0000
     13 C          66.2036   92.3941   14.0828 C.ar    1  UNL1        0.0000
     14 C          65.6060   91.1935   14.7548 C.ar    1  UNL1        0.0000
     15 C          64.5584   90.3835   14.0502 C.ar    1  UNL1        0.0015
     16 C          62.0749   86.1589   11.4227 C.2     1  UNL1        0.2700
     17 O          61.5401   85.3367   10.2878 O.2     1  UNL1       -0.2681
     18 N          62.6406   85.4835   12.6367 N.am    1  UNL1       -0.2791
     19 H          62.9916   86.0231   13.3816 H       1  UNL1        0.1552
     20 C          62.6715   83.9859   12.7159 C.ar    1  UNL1        0.0506
     21 C          62.2875   83.2942   13.9902 C.ar    1  UNL1        0.0147
     22 C          62.3184   81.7965   14.0694 C.ar    1  UNL1        0.0013
     23 C          62.7333   80.9907   12.8742 C.ar    1  UNL1        0.0001
     24 C          63.1173   81.6825   11.5998 C.ar    1  UNL1        0.0013
     25 C          63.0864   83.1800   11.5206 C.ar    1  UNL1        0.0147
@<TRIPOS>BOND
     1     1     2    1
     2     2     3   ar
     3     3     4   ar
     4     4     5   ar
     5     5    10    1
     6    10    11   ar
     7    11    12   ar
     8    12    13   ar
     9    13    14   ar
    10    14    15   ar
    11     5     6   ar
    12     6     7   ar
    13     7    16    1
    14    16    17    2
    15    16    18   am
    16    18    20    1
    17    20    21   ar
    18    21    22   ar
    19    22    23   ar
    20    23    24   ar
    21    24    25   ar
    22     7     2   ar
    23    25    20   ar
    24    15    10   ar
    25     1     8    1
    26     1     9    1
    27    18    19    1
@<TRIPOS>MOLECULE
*****
 25 27 0 0 0
SMALL
GASTEIGER

@<TRIPOS>ATOM
      1 N          63.1159   88.6086   17.6578 N.pl3   1  UNL1       -0.3413
      2 C          63.2520   87.5951   16.5604 C.ar    1  UNL1        0.1477
      3 N          62.8893   86.1619   16.8139 N.ar    1  UNL1       -0.2263
      4 C          63.0254   85.1484   15.7165 C.ar    1  UNL1        0.1194
      5 C          63.5244   85.5680   14.3657 C.ar    1  UNL1        0.1006
      6 N          63.8872   87.0012   14.1122 N.ar    1  UNL1       -0.2364
      7 C          63.7510   88.0147   15.2095 C.ar    1  UNL1        0.1657
      8 H          62.7884   88.3332   18.5444 H       1  UNL1        0.1438
      9 H          63.3540   89.5493   17.4914 H       1  UNL1        0.1438
     10 C          63.6605   84.5545   13.2683 C.ar    1  UNL1        0.0192
     11 C          63.0674   84.8270   11.9178 C.ar    1  UNL1        0.0015
     12 C          63.2036   83.8135   10.8204 C.ar    1  UNL1        0.0000
     13 C          63.9329   82.5274   11.0736 C.ar    1  UNL1        0.0000
     14 C          64.5260   82.2549   12.4241 C.ar    1  UNL1        0.0000
     15 C          64.3898   83.2684   13.5214 C.ar    1  UNL1        0.0015
     16 C          64.1138   89.4480   14.9560 C.2     1  UNL1        0.2700
     17 O          63.1221   90.5353   15.2462 O.2     1  UNL1       -0.2681
     18 N          65.4683   89.7938   14.4122 N.am    1  UNL1       -0.2791
     19 H          66.1192   89.0802   14.2217 H       1  UNL1        0.1552
     20 C          65.8312   91.2270   14.1586 C.ar    1  UNL1        0.0506
     21 C          65.4390   91.8829   12.8679 C.ar    1  UNL1        0.0147
     22 C          65.8019   93.3161   12.6144 C.ar    1  UNL1        0.0013
     23 C          66.5569   94.0934   13.6515 C.ar    1  UNL1        0.0001
     24 C          66.9491   93.4375   14.9423 C.ar    1  UNL1        0.0013
     25 C          66.5862   92.0043   15.1959 C.ar    1  UNL1        0.0147
@<TRIPOS>BOND
     1     1     2    1
     2     2     3   ar
     3     3     4   ar
     4     4     5   ar
     5     5    10    1
     6    10    11   ar
     7    11    12   ar
     8    12    13   ar
     9    13    14   ar
    10    14    15   ar
    11     5     6   ar
    12     6     7   ar
    13     7    16    1
    14    16    17    2
    15    16    18   am
    16    18    20    1
    17    20    21   ar
    18    21    22   ar
    19    22    23   ar
    20    23    24   ar
    21    24    25   ar
    22     7     2   ar
    23    25    20   ar
    24    15    10   ar
    25     1     8    1
    26     1     9    1
    27    18    19    1
@<TRIPOS>MOLECULE
*****
 25 27 0 0 0
SMALL
GASTEIGER

@<TRIPOS>ATOM
      1 N          65.9799   91.6589   14.9967 N.pl3   1  UNL1       -0.3413
      2 C          65.0647   90.8968   14.0848 C.ar    1  UNL1        0.1477
      3 N          64.4411   89.6140   14.5490 N.ar    1  UNL1       -0.2263
      4 C          63.5259   88.8519   13.6371 C.ar    1  UNL1        0.1194
      5 C          63.2342   89.3727   12.2610 C.ar    1  UNL1        0.1006
      6 N          63.8577   90.6555   11.7968 N.ar    1  UNL1       -0.2364
      7 C          64.7730   91.4176   12.7087 C.ar    1  UNL1        0.1657
      8 H          66.1713   91.3171   15.8999 H       1  UNL1        0.1438
      9 H          66.3892   92.5009   14.6920 H       1  UNL1        0.1438
     10 C          62.3189   88.6106   11.3490 C.ar    1  UNL1        0.0192
     11 C          61.3710   89.3481   10.4505 C.ar    1  UNL1        0.0015
     12 C          60.4557   88.5860    9.5386 C.ar    1  UNL1        0.0000
     13 C          60.4885   87.0865    9.5252 C.ar    1  UNL1        0.0000
     14 C          61.4364   86.3490   10.4238 C.ar    1  UNL1        0.0000
     15 C          62.3517   87.1111   11.3357 C.ar    1  UNL1        0.0015
     16 C          65.3965   92.7005   12.2444 C.2     1  UNL1        0.2700
     17 O          65.9199   93.6858   13.2469 O.2     1  UNL1       -0.2681
     18 N          65.4967   92.9979   10.7776 N.am    1  UNL1       -0.2791
     19 H          65.1531   92.3512   10.1196 H       1  UNL1        0.1552
     20 C          66.1202   94.2807   10.3134 C.ar    1  UNL1        0.0506
     21 C          67.0941   94.2714    9.1725 C.ar    1  UNL1        0.0147
     22 C          67.7176   95.5543    8.7083 C.ar    1  UNL1        0.0013
     23 C          67.3672   96.8464    9.3848 C.ar    1  UNL1        0.0001
     24 C          66.3933   96.8557   10.5256 C.ar    1  UNL1        0.0013
     25 C          65.7698   95.5729   10.9899 C.ar    1  UNL1        0.0147
@<TRIPOS>BOND
     1     1     2    1
     2     2     3   ar
     3     3     4   ar
     4     4     5   ar
     5     5    10    1
     6    10    11   ar
     7    11    12   ar
     8    12    13   ar
     9    13    14   ar
    10    14    15   ar
    11     5     6   ar
    12     6     7   ar
    13     7    16    1
    14    16    17    2
    15    16    18   am
    16    18    20    1
    17    20    21   ar
    18    21    22   ar
    19    22    23   ar
    20    23    24   ar
    21    24    25   ar
    22     7     2   ar
    23    25    20   ar
    24    15    10   ar
    25     1     8    1
    26     1     9    1
    27    18    19    1
@<TRIPOS>MOLECULE
*****
 25 27 0 0 0
SMALL
GASTEIGER

@<TRIPOS>ATOM
      1 N          63.2894   90.2315   16.9128 N.pl3   1  UNL1       -0.3413
      2 C          63.3967   88.8998   16.2308 C.ar    1  UNL1        0.1477
      3 N          63.1325   87.6397   17.0002 N.ar    1  UNL1       -0.2263
      4 C          63.2398   86.3080   16.3182 C.ar    1  UNL1        0.1194
      5 C          63.6112   86.2365   14.8667 C.ar    1  UNL1        0.1006
      6 N          63.8753   87.4967   14.0972 N.ar    1  UNL1       -0.2364
      7 C          63.7681   88.8283   14.7793 C.ar    1  UNL1        0.1657
      8 H          63.0456   90.2784   17.8655 H       1  UNL1        0.1438
      9 H          63.4628   91.0586   16.4077 H       1  UNL1        0.1438
     10 C          63.7184   84.9048   14.1847 C.ar    1  UNL1        0.0192
     11 C          64.0074   83.6717   14.9884 C.ar    1  UNL1        0.0015
     12 C          64.1146   82.3400   14.3064 C.ar    1  UNL1        0.0000
     13 C          63.9329   82.2415   12.8207 C.ar    1  UNL1        0.0000
     14 C          63.6440   83.4746   12.0171 C.ar    1  UNL1        0.0000
     15 C          63.5367   84.8063   12.6991 C.ar    1  UNL1        0.0015
     16 C          64.0322   90.0885   14.0097 C.2     1  UNL1        0.2700
     17 O          62.9375   90.7151   13.1980 O.2     1  UNL1       -0.2681
     18 N          65.3912   90.7221   14.0519 N.am    1  UNL1       -0.2791
     19 H          66.1097   90.3109   14.5846 H       1  UNL1        0.1552
     20 C          65.6554   91.9823   13.2823 C.ar    1  UNL1        0.0506
     21 C          66.3186   93.1471   13.9556 C.ar    1  UNL1        0.0147
     22 C          66.5827   94.4073   13.1860 C.ar    1  UNL1        0.0013
     23 C          66.1838   94.5026   11.7432 C.ar    1  UNL1        0.0001
     24 C          65.5206   93.3377   11.0699 C.ar    1  UNL1        0.0013
     25 C          65.2564   92.0776   11.8395 C.ar    1  UNL1        0.0147
@<TRIPOS>BOND
     1     1     2    1
     2     2     3   ar
     3     3     4   ar
     4     4     5   ar
     5     5    10    1
     6    10    11   ar
     7    11    12   ar
     8    12    13   ar
     9    13    14   ar
    10    14    15   ar
    11     5     6   ar
    12     6     7   ar
    13     7    16    1
    14    16    17    2
    15    16    18   am
    16    18    20    1
    17    20    21   ar
    18    21    22   ar
    19    22    23   ar
    20    23    24   ar
    21    24    25   ar
    22     7     2   ar
    23    25    20   ar
    24    15    10   ar
    25     1     8    1
    26     1     9    1
    27    18    19    1
@<TRIPOS>MOLECULE
*****
 25 27 0 0 0
SMALL
GASTEIGER

@<TRIPOS>ATOM
      1 N          63.6491   91.5319   16.0503 N.pl3   1  UNL1       -0.3413
      2 C          63.7038   90.1007   15.6047 C.ar    1  UNL1        0.1477
      3 N          63.3722   89.0015   16.5699 N.ar    1  UNL1       -0.2263
      4 C          63.4270   87.5702   16.1244 C.ar    1  UNL1        0.1194
      5 C          63.8133   87.2382   14.7135 C.ar    1  UNL1        0.1006
      6 N          64.1448   88.3374   13.7483 N.ar    1  UNL1       -0.2364
      7 C          64.0901   89.7687   14.1939 C.ar    1  UNL1        0.1657
      8 H          63.3956   91.7498   16.9763 H       1  UNL1        0.1438
      9 H          63.8667   92.2534   15.4167 H       1  UNL1        0.1438
     10 C          63.8680   85.8070   14.2679 C.ar    1  UNL1        0.0192
     11 C          63.4524   85.4389   12.8745 C.ar    1  UNL1        0.0015
     12 C          63.5071   84.0076   12.4289 C.ar    1  UNL1        0.0000
     13 C          63.9774   82.9445   13.3768 C.ar    1  UNL1        0.0000
     14 C          64.3930   83.3126   14.7702 C.ar    1  UNL1        0.0000
     15 C          64.3383   84.7438   15.2158 C.ar    1  UNL1        0.0015
     16 C          64.4217   90.8679   13.2285 C.2     1  UNL1        0.2700
     17 O          63.3775   91.3696   12.2757 O.2     1  UNL1       -0.2681
     18 N          65.7975   91.4653   13.2161 N.am    1  UNL1       -0.2791
     19 H          66.4829   91.1360   13.8414 H       1  UNL1        0.1552
     20 C          66.1291   92.5645   12.2508 C.ar    1  UNL1        0.0506
     21 C          66.5537   92.2310   10.8513 C.ar    1  UNL1        0.0147
     22 C          66.8853   93.3303    9.8860 C.ar    1  UNL1        0.0013
     23 C          66.7924   94.7630   10.3202 C.ar    1  UNL1        0.0001
     24 C          66.3678   95.0965   11.7197 C.ar    1  UNL1        0.0013
     25 C          66.0362   93.9974   12.6850 C.ar    1  UNL1        0.0147
@<TRIPOS>BOND
     1     1     2    1
     2     2     3   ar
     3     3     4   ar
     4     4     5   ar
     5     5    10    1
     6    10    11   ar
     7    11    12   ar
     8    12    13   ar
     9    13    14   ar
    10    14    15   ar
    11     5     6   ar
    12     6     7   ar
    13     7    16    1
    14    16    17    2
    15    16    18   am
    16    18    20    1
    17    20    21   ar
    18    21    22   ar
    19    22    23   ar
    20    23    24   ar
    21    24    25   ar
    22     7     2   ar
    23    25    20   ar
    24    15    10   ar
    25     1     8    1
    26     1     9    1
    27    18    19    1
@<TRIPOS>MOLECULE
*****
 25 27 0 0 0
SMALL
GASTEIGER

@<TRIPOS>ATOM
      1 N          63.2032   88.3464   17.0667 N.pl3   1  UNL1       -0.3413
      2 C          63.1287   87.0876   16.2544 C.ar    1  UNL1        0.1477
      3 N          62.6426   85.8161   16.8844 N.ar    1  UNL1       -0.2263
      4 C          62.5682   84.5573   16.0720 C.ar    1  UNL1        0.1194
      5 C          62.9798   84.5700   14.6297 C.ar    1  UNL1        0.1006
      6 N          63.4659   85.8415   13.9997 N.ar    1  UNL1       -0.2364
      7 C          63.5404   87.1003   14.8120 C.ar    1  UNL1        0.1657
      8 H          62.9330   88.3381   18.0133 H       1  UNL1        0.1438
      9 H          63.5222   89.1810   16.6532 H       1  UNL1        0.1438
     10 C          62.9054   83.3112   13.8174 C.ar    1  UNL1        0.0192
     11 C          63.5104   83.2670   12.4456 C.ar    1  UNL1        0.0015
     12 C          63.4359   82.0081   11.6333 C.ar    1  UNL1        0.0000
     13 C          62.7565   80.7936   12.1928 C.ar    1  UNL1        0.0000
     14 C          62.1515   80.8378   13.5646 C.ar    1  UNL1        0.0000
     15 C          62.2260   82.0966   14.3769 C.ar    1  UNL1        0.0015
     16 C          64.0265   88.3718   14.1820 C.2     1  UNL1        0.2700
     17 O          65.2209   89.0807   14.7485 O.2     1  UNL1       -0.2681
     18 N          63.3183   88.9344   12.9854 N.am    1  UNL1       -0.2791
     19 H          62.5344   88.4692   12.6135 H       1  UNL1        0.1552
     20 C          63.8044   90.2059   12.3553 C.ar    1  UNL1        0.0506
     21 C          64.7193   91.1184   13.1170 C.ar    1  UNL1        0.0147
     22 C          65.2054   92.3899   12.4868 C.ar    1  UNL1        0.0013
     23 C          64.7765   92.7489   11.0950 C.ar    1  UNL1        0.0001
     24 C          63.8616   91.8364   10.3333 C.ar    1  UNL1        0.0013
     25 C          63.3755   90.5649   10.9634 C.ar    1  UNL1        0.0147
@<TRIPOS>BOND
     1     1     2    1
     2     2     3   ar
     3     3     4   ar
     4     4     5   ar
     5     5    10    1
     6    10    11   ar
     7    11    12   ar
     8    12    13   ar
     9    13    14   ar
    10    14    15   ar
    11     5     6   ar
    12     6     7   ar
    13     7    16    1
    14    16    17    2
    15    16    18   am
    16    18    20    1
    17    20    21   ar
    18    21    22   ar
    19    22    23   ar
    20    23    24   ar
    21    24    25   ar
    22     7     2   ar
    23    25    20   ar
    24    15    10   ar
    25     1     8    1
    26     1     9    1
    27    18    19    1
