@<TRIPOS>MOLECULE
*****
 34 37 0 0 0
SMALL
GASTEIGER

@<TRIPOS>ATOM
      1 N          63.0712   90.9399   11.5012 N.am    1  UNL1       -0.2438
      2 C          63.6029   91.6343   10.2825 C.3     1  UNL1        0.1009
      3 C          64.7741   92.5641   10.4001 C.3     1  UNL1        0.0662
      4 C          65.4136   92.7994   11.7364 C.3     1  UNL1        0.1600
      5 O          64.8819   92.1050   12.9551 O.3     1  UNL1       -0.4374
      6 C          63.7107   91.1753   12.8375 C.2     1  UNL1        0.4051
      7 O          63.1791   90.4809   14.0562 O.2     1  UNL1       -0.2262
      8 C          66.2708   93.6820   10.8783 C.ar    1  UNL1        0.0138
      9 C          66.2420   95.1696   11.0684 C.ar    1  UNL1       -0.0010
     10 C          67.0991   96.0521   10.2104 C.ar    1  UNL1       -0.0002
     11 C          67.9851   95.4471    9.1621 C.ar    1  UNL1       -0.0000
     12 C          68.0140   93.9595    8.9718 C.ar    1  UNL1       -0.0002
     13 C          67.1568   93.0769    9.8299 C.ar    1  UNL1       -0.0010
     14 C          61.9000   90.0102   11.3836 C.3     1  UNL1        0.1011
     15 C          60.5506   90.5475   11.0089 C.3     1  UNL1        0.0265
     16 C          62.4346   85.6091   12.1551 C.ar    1  UNL1        0.0194
     17 C          61.3298   86.0847   11.2588 C.ar    1  UNL1        0.0013
     18 C          61.1516   87.5517   11.0016 C.ar    1  UNL1       -0.0026
     19 C          62.0782   88.5432   11.6408 C.ar    1  UNL1       -0.0042
     20 C          63.1829   88.0676   12.5371 C.ar    1  UNL1       -0.0026
     21 C          63.3611   86.6006   12.7942 C.ar    1  UNL1        0.0013
     22 C          63.1473   79.7411   13.1837 C.3     1  UNL1        0.0540
     23 C          62.9691   81.2081   12.9265 C.ar    1  UNL1        0.0809
     24 C          63.1187   81.7493   11.5356 C.ar    1  UNL1        0.0181
     25 C          62.9405   83.2163   11.2785 C.ar    1  UNL1        0.0222
     26 C          62.6127   84.1421   12.4122 C.ar    1  UNL1        0.1029
     27 N          62.4632   83.6009   13.8031 N.ar    1  UNL1       -0.1483
     28 N          62.6414   82.1339   14.0603 N.ar    1  UNL1       -0.1524
     29 C          66.3508   93.3413   12.7747 C.3     1  UNL1        0.0714
     30 C          67.0099   92.4105   13.7490 C.3     1  UNL1        0.0922
     31 C          67.7240   91.7320   12.6177 C.3     1  UNL1        0.0294
     32 C          66.2958   93.0890   14.8803 C.3     1  UNL1        0.0294
     33 O          67.6691   91.4797   14.7233 O.3     1  UNL1       -0.3866
     34 H          68.2465   90.8654   14.2436 H       1  UNL1        0.2102
@<TRIPOS>BOND
     1    22    23    1
     2    23    24   ar
     3    24    25   ar
     4    25    26   ar
     5    26    16    1
     6    16    17   ar
     7    17    18   ar
     8    18    19   ar
     9    19    14    1
    10    14    15    1
    11    14     1    1
    12     1     2    1
    13     2     3    1
    14     3     4    1
    15     4    29    1
    16    29    30    1
    17    30    31    1
    18    30    32    1
    19    30    33    1
    20     4     8    1
    21     8     9   ar
    22     9    10   ar
    23    10    11   ar
    24    11    12   ar
    25    12    13   ar
    26     4     5    1
    27     5     6    1
    28     6     7    2
    29    19    20   ar
    30    20    21   ar
    31    26    27   ar
    32    27    28   ar
    33    28    23   ar
    34    21    16   ar
    35     6     1   am
    36    13     8   ar
    37    33    34    1
@<TRIPOS>MOLECULE
*****
 34 37 0 0 0
SMALL
GASTEIGER

@<TRIPOS>ATOM
      1 N          63.5133   90.5071   11.9078 N.am    1  UNL1       -0.2438
      2 C          64.1971   90.3067   13.2277 C.3     1  UNL1        0.1009
      3 C          65.3618   91.1722   13.6081 C.3     1  UNL1        0.0662
      4 C          65.8426   92.2380   12.6685 C.3     1  UNL1        0.1600
      5 O          65.1588   92.4384   11.3486 O.3     1  UNL1       -0.4374
      6 C          63.9942   91.5730   10.9682 C.2     1  UNL1        0.4051
      7 O          63.3104   91.7733    9.6482 O.2     1  UNL1       -0.2262
      8 C          66.8100   92.4310   13.7984 C.ar    1  UNL1        0.0138
      9 C          68.2662   92.1315   13.5986 C.ar    1  UNL1       -0.0010
     10 C          69.2336   92.3246   14.7285 C.ar    1  UNL1       -0.0002
     11 C          68.7449   92.8171   16.0583 C.ar    1  UNL1       -0.0000
     12 C          67.2888   93.1166   16.2583 C.ar    1  UNL1       -0.0002
     13 C          66.3213   92.9236   15.1284 C.ar    1  UNL1       -0.0010
     14 C          62.3487   89.6417   11.5274 C.3     1  UNL1        0.1011
     15 C          61.1259   90.2569   10.9142 C.3     1  UNL1        0.0265
     16 C          62.5234   85.1997   12.2260 C.ar    1  UNL1        0.0194
     17 C          61.6129   85.7580   11.1728 C.ar    1  UNL1        0.0013
     18 C          61.5547   87.2387   10.9399 C.ar    1  UNL1       -0.0026
     19 C          62.4070   88.1610   11.7603 C.ar    1  UNL1       -0.0042
     20 C          63.3175   87.6026   12.8134 C.ar    1  UNL1       -0.0026
     21 C          63.3757   86.1220   13.0463 C.ar    1  UNL1        0.0013
     22 C          62.7563   79.2770   13.1574 C.3     1  UNL1        0.0540
     23 C          62.6981   80.7576   12.9245 C.ar    1  UNL1        0.0809
     24 C          62.9260   81.3100   11.5487 C.ar    1  UNL1        0.0181
     25 C          62.8678   82.7907   11.3159 C.ar    1  UNL1        0.0222
     26 C          62.5816   83.7190   12.4588 C.ar    1  UNL1        0.1029
     27 N          62.3537   83.1666   13.8346 N.ar    1  UNL1       -0.1483
     28 N          62.4119   81.6859   14.0675 N.ar    1  UNL1       -0.1524
     29 C          66.6594   93.3708   12.1213 C.3     1  UNL1        0.0714
     30 C          66.5839   93.7139   10.6630 C.3     1  UNL1        0.0922
     31 C          65.7908   94.9435   10.9933 C.3     1  UNL1        0.0294
     32 C          67.3771   92.4843   10.3327 C.3     1  UNL1        0.0294
     33 O          66.5085   94.0569    9.2047 O.3     1  UNL1       -0.3866
     34 H          66.0087   94.8806    9.0917 H       1  UNL1        0.2102
@<TRIPOS>BOND
     1    22    23    1
     2    23    24   ar
     3    24    25   ar
     4    25    26   ar
     5    26    16    1
     6    16    17   ar
     7    17    18   ar
     8    18    19   ar
     9    19    14    1
    10    14    15    1
    11    14     1    1
    12     1     2    1
    13     2     3    1
    14     3     4    1
    15     4    29    1
    16    29    30    1
    17    30    31    1
    18    30    32    1
    19    30    33    1
    20     4     8    1
    21     8     9   ar
    22     9    10   ar
    23    10    11   ar
    24    11    12   ar
    25    12    13   ar
    26     4     5    1
    27     5     6    1
    28     6     7    2
    29    19    20   ar
    30    20    21   ar
    31    26    27   ar
    32    27    28   ar
    33    28    23   ar
    34    21    16   ar
    35     6     1   am
    36    13     8   ar
    37    33    34    1
@<TRIPOS>MOLECULE
*****
 34 37 0 0 0
SMALL
GASTEIGER

@<TRIPOS>ATOM
      1 N          63.0733   90.8969   11.7692 N.am    1  UNL1       -0.2438
      2 C          63.5829   91.5198   10.5034 C.3     1  UNL1        0.1009
      3 C          64.7795   92.4236   10.5412 C.3     1  UNL1        0.0662
      4 C          65.4664   92.7044   11.8447 C.3     1  UNL1        0.1600
      5 O          64.9568   92.0815   13.1105 O.3     1  UNL1       -0.4374
      6 C          63.7602   91.1777   13.0728 C.2     1  UNL1        0.4051
      7 O          63.2506   90.5548   14.3385 O.2     1  UNL1       -0.2262
      8 C          66.3172   93.5237   10.9202 C.ar    1  UNL1        0.0138
      9 C          66.2594   95.0214   10.9772 C.ar    1  UNL1       -0.0010
     10 C          67.1102   95.8407   10.0526 C.ar    1  UNL1       -0.0002
     11 C          68.0189   95.1622    9.0709 C.ar    1  UNL1       -0.0000
     12 C          68.0769   93.6644    9.0138 C.ar    1  UNL1       -0.0002
     13 C          67.2260   92.8451    9.9384 C.ar    1  UNL1       -0.0010
     14 C          61.8768   89.9931   11.7314 C.3     1  UNL1        0.1011
     15 C          60.4954   90.5776   11.7248 C.3     1  UNL1        0.0265
     16 C          62.4313   85.5284   11.6379 C.ar    1  UNL1        0.0194
     17 C          63.3030   86.3741   12.5181 C.ar    1  UNL1        0.0013
     18 C          63.1182   87.8624   12.5493 C.ar    1  UNL1       -0.0026
     19 C          62.0616   88.5049   11.7002 C.ar    1  UNL1       -0.0042
     20 C          61.1899   87.6591   10.8201 C.ar    1  UNL1       -0.0026
     21 C          61.3748   86.1708   10.7889 C.ar    1  UNL1        0.0013
     22 C          63.1708   79.5754   11.5133 C.3     1  UNL1        0.0540
     23 C          62.9859   81.0637   11.5445 C.ar    1  UNL1        0.0809
     24 C          62.3379   81.7143   12.7305 C.ar    1  UNL1        0.0181
     25 C          62.1531   83.2025   12.7617 C.ar    1  UNL1        0.0222
     26 C          62.6162   84.0401   11.6068 C.ar    1  UNL1        0.1029
     27 N          63.2642   83.3895   10.4207 N.ar    1  UNL1       -0.1483
     28 N          63.4491   81.9013   10.3896 N.ar    1  UNL1       -0.1524
     29 C          66.4488   93.2698   12.8272 C.3     1  UNL1        0.0714
     30 C          67.1006   92.3723   13.8370 C.3     1  UNL1        0.0922
     31 C          67.8262   91.6591   12.7347 C.3     1  UNL1        0.0294
     32 C          66.3751   93.0854   14.9393 C.3     1  UNL1        0.0294
     33 O          67.7525   91.4747   14.8467 O.3     1  UNL1       -0.3866
     34 H          68.3354   90.8465   14.3923 H       1  UNL1        0.2102
@<TRIPOS>BOND
     1    22    23    1
     2    23    24   ar
     3    24    25   ar
     4    25    26   ar
     5    26    16    1
     6    16    17   ar
     7    17    18   ar
     8    18    19   ar
     9    19    14    1
    10    14    15    1
    11    14     1    1
    12     1     2    1
    13     2     3    1
    14     3     4    1
    15     4    29    1
    16    29    30    1
    17    30    31    1
    18    30    32    1
    19    30    33    1
    20     4     8    1
    21     8     9   ar
    22     9    10   ar
    23    10    11   ar
    24    11    12   ar
    25    12    13   ar
    26     4     5    1
    27     5     6    1
    28     6     7    2
    29    19    20   ar
    30    20    21   ar
    31    26    27   ar
    32    27    28   ar
    33    28    23   ar
    34    21    16   ar
    35     6     1   am
    36    13     8   ar
    37    33    34    1
@<TRIPOS>MOLECULE
*****
 34 37 0 0 0
SMALL
GASTEIGER

@<TRIPOS>ATOM
      1 N          62.2874   87.7214   12.1432 N.am    1  UNL1       -0.2438
      2 C          61.9532   86.6300   11.1700 C.3     1  UNL1        0.1009
      3 C          62.4876   85.2448   11.3840 C.3     1  UNL1        0.0662
      4 C          63.3561   84.9510   12.5712 C.3     1  UNL1        0.1600
      5 O          63.6903   86.0425   13.5444 O.3     1  UNL1       -0.4374
      6 C          63.1560   87.4276   13.3304 C.2     1  UNL1        0.4051
      7 O          63.4902   88.5191   14.3036 O.2     1  UNL1       -0.2262
      8 C          63.3190   83.5940   11.9334 C.ar    1  UNL1        0.0138
      9 C          64.0403   83.3528   10.6405 C.ar    1  UNL1       -0.0010
     10 C          64.0032   81.9958   10.0027 C.ar    1  UNL1       -0.0002
     11 C          63.2449   80.8796   10.6578 C.ar    1  UNL1       -0.0000
     12 C          62.5236   81.1206   11.9507 C.ar    1  UNL1       -0.0002
     13 C          62.5606   82.4778   12.5885 C.ar    1  UNL1       -0.0010
     14 C          61.7532   89.1066   11.9292 C.3     1  UNL1        0.1011
     15 C          60.2918   89.3847   12.1214 C.3     1  UNL1        0.0265
     16 C          64.5344   92.4277   10.7106 C.ar    1  UNL1        0.0194
     17 C          64.5141   91.9502   12.1324 C.ar    1  UNL1        0.0013
     18 C          63.5870   90.8431   12.5386 C.ar    1  UNL1       -0.0026
     19 C          62.6803   90.2136   11.5230 C.ar    1  UNL1       -0.0042
     20 C          62.7006   90.6911   10.1012 C.ar    1  UNL1       -0.0026
     21 C          63.6277   91.7981    9.6950 C.ar    1  UNL1        0.0013
     22 C          68.2428   96.8558    9.0859 C.3     1  UNL1        0.0540
     23 C          67.3157   95.7488    9.4921 C.ar    1  UNL1        0.0809
     24 C          67.6962   94.3204    9.2374 C.ar    1  UNL1        0.0181
     25 C          66.7691   93.2134    9.6435 C.ar    1  UNL1        0.0222
     26 C          65.4615   93.5347   10.3045 C.ar    1  UNL1        0.1029
     27 N          65.0810   94.9631   10.5592 N.ar    1  UNL1       -0.1483
     28 N          66.0081   96.0701   10.1530 N.ar    1  UNL1       -0.1524
     29 C          64.2117   84.1860   13.5369 C.3     1  UNL1        0.0714
     30 C          64.3763   84.6768   14.9448 C.3     1  UNL1        0.0922
     31 C          62.9861   84.2154   15.2681 C.3     1  UNL1        0.0294
     32 C          65.7665   85.1381   14.6214 C.3     1  UNL1        0.0294
     33 O          64.5409   85.1675   16.3527 O.3     1  UNL1       -0.3866
     34 H          63.7288   84.9920   16.8533 H       1  UNL1        0.2102
@<TRIPOS>BOND
     1    22    23    1
     2    23    24   ar
     3    24    25   ar
     4    25    26   ar
     5    26    16    1
     6    16    17   ar
     7    17    18   ar
     8    18    19   ar
     9    19    14    1
    10    14    15    1
    11    14     1    1
    12     1     2    1
    13     2     3    1
    14     3     4    1
    15     4    29    1
    16    29    30    1
    17    30    31    1
    18    30    32    1
    19    30    33    1
    20     4     8    1
    21     8     9   ar
    22     9    10   ar
    23    10    11   ar
    24    11    12   ar
    25    12    13   ar
    26     4     5    1
    27     5     6    1
    28     6     7    2
    29    19    20   ar
    30    20    21   ar
    31    26    27   ar
    32    27    28   ar
    33    28    23   ar
    34    21    16   ar
    35     6     1   am
    36    13     8   ar
    37    33    34    1
@<TRIPOS>MOLECULE
*****
 34 37 0 0 0
SMALL
GASTEIGER

@<TRIPOS>ATOM
      1 N          63.7415   87.7488   14.7802 N.am    1  UNL1       -0.2438
      2 C          63.7234   87.4229   13.3161 C.3     1  UNL1        0.1009
      3 C          63.7337   85.9920   12.8661 C.3     1  UNL1        0.0662
      4 C          63.7621   84.8871   13.8801 C.3     1  UNL1        0.1600
      5 O          63.7802   85.2130   15.3441 O.3     1  UNL1       -0.4374
      6 C          63.7699   86.6438   15.7942 C.2     1  UNL1        0.4051
      7 O          63.7880   86.9697   17.2583 O.2     1  UNL1       -0.2262
      8 C          63.7527   84.0801   12.6157 C.ar    1  UNL1        0.0138
      9 C          62.6086   84.2063   11.6539 C.ar    1  UNL1       -0.0010
     10 C          62.5992   83.3993   10.3895 C.ar    1  UNL1       -0.0002
     11 C          63.7340   82.4662   10.0869 C.ar    1  UNL1       -0.0000
     12 C          64.8781   82.3399   11.0487 C.ar    1  UNL1       -0.0002
     13 C          64.8875   83.1469   12.3131 C.ar    1  UNL1       -0.0010
     14 C          63.7312   89.1796   15.2302 C.3     1  UNL1        0.1011
     15 C          63.1738   89.5386   16.5757 C.3     1  UNL1        0.0265
     16 C          65.3729   92.3951   12.5440 C.ar    1  UNL1        0.0194
     17 C          66.1088   92.0143   13.7944 C.ar    1  UNL1        0.0013
     18 C          65.5615   90.9425   14.6898 C.ar    1  UNL1       -0.0026
     19 C          64.2784   90.2515   14.3348 C.ar    1  UNL1       -0.0042
     20 C          63.5426   90.6322   13.0845 C.ar    1  UNL1       -0.0026
     21 C          64.0898   91.7040   12.1890 C.ar    1  UNL1        0.0013
     22 C          67.5617   96.6824    8.9624 C.3     1  UNL1        0.0540
     23 C          67.0145   95.6106    9.8578 C.ar    1  UNL1        0.0809
     24 C          66.9534   94.1909    9.3775 C.ar    1  UNL1        0.0181
     25 C          66.4062   93.1191   10.2729 C.ar    1  UNL1        0.0222
     26 C          65.9201   93.4669   11.6486 C.ar    1  UNL1        0.1029
     27 N          65.9811   94.8866   12.1289 N.ar    1  UNL1       -0.1483
     28 N          66.5284   95.9584   11.2335 N.ar    1  UNL1       -0.1524
     29 C          63.7872   83.5019   14.4550 C.3     1  UNL1        0.0714
     30 C          62.5095   82.7319   14.6126 C.3     1  UNL1        0.0922
     31 C          63.2084   81.4812   14.1685 C.3     1  UNL1        0.0294
     32 C          61.8105   83.9827   15.0566 C.3     1  UNL1        0.0294
     33 O          61.2318   81.9620   14.7701 O.3     1  UNL1       -0.3866
     34 H          61.3825   81.0335   14.5334 H       1  UNL1        0.2102
@<TRIPOS>BOND
     1    22    23    1
     2    23    24   ar
     3    24    25   ar
     4    25    26   ar
     5    26    16    1
     6    16    17   ar
     7    17    18   ar
     8    18    19   ar
     9    19    14    1
    10    14    15    1
    11    14     1    1
    12     1     2    1
    13     2     3    1
    14     3     4    1
    15     4    29    1
    16    29    30    1
    17    30    31    1
    18    30    32    1
    19    30    33    1
    20     4     8    1
    21     8     9   ar
    22     9    10   ar
    23    10    11   ar
    24    11    12   ar
    25    12    13   ar
    26     4     5    1
    27     5     6    1
    28     6     7    2
    29    19    20   ar
    30    20    21   ar
    31    26    27   ar
    32    27    28   ar
    33    28    23   ar
    34    21    16   ar
    35     6     1   am
    36    13     8   ar
    37    33    34    1
@<TRIPOS>MOLECULE
*****
 34 37 0 0 0
SMALL
GASTEIGER

@<TRIPOS>ATOM
      1 N          62.1717   88.3366   11.2944 N.am    1  UNL1       -0.2438
      2 C          62.5305   87.1651   12.1598 C.3     1  UNL1        0.1009
      3 C          62.7108   85.8077   11.5475 C.3     1  UNL1        0.0662
      4 C          62.5324   85.6217   10.0698 C.3     1  UNL1        0.1600
      5 O          62.1736   86.7932    9.2044 O.3     1  UNL1       -0.4374
      6 C          61.9933   88.1506    9.8167 C.2     1  UNL1        0.4051
      7 O          61.6345   89.3221    8.9513 O.2     1  UNL1       -0.2262
      8 C          62.8698   84.2162   10.4703 C.ar    1  UNL1        0.0138
      9 C          62.1888   83.5884   11.6501 C.ar    1  UNL1       -0.0010
     10 C          62.5263   82.1829   12.0506 C.ar    1  UNL1       -0.0002
     11 C          63.5449   81.4050   11.2713 C.ar    1  UNL1       -0.0000
     12 C          64.2260   82.0326   10.0915 C.ar    1  UNL1       -0.0002
     13 C          63.8885   83.4383    9.6909 C.ar    1  UNL1       -0.0010
     14 C          61.9914   89.6940   11.9067 C.3     1  UNL1        0.1011
     15 C          60.6498   90.3635   11.8645 C.3     1  UNL1        0.0265
     16 C          65.4751   91.7575   13.8701 C.ar    1  UNL1        0.0194
     17 C          65.0954   92.1039   12.4610 C.ar    1  UNL1        0.0013
     18 C          63.9341   91.4161   11.8065 C.ar    1  UNL1       -0.0026
     19 C          63.1526   90.3818   12.5612 C.ar    1  UNL1       -0.0042
     20 C          63.5324   90.0354   13.9703 C.ar    1  UNL1       -0.0026
     21 C          64.6936   90.7233   14.6248 C.ar    1  UNL1        0.0013
     22 C          70.1201   94.5089   16.4881 C.3     1  UNL1        0.0540
     23 C          68.9589   93.8211   15.8336 C.ar    1  UNL1        0.0809
     24 C          68.7684   92.3433   16.0058 C.ar    1  UNL1        0.0181
     25 C          67.6072   91.6554   15.3513 C.ar    1  UNL1        0.0222
     26 C          66.6364   92.4454   14.5246 C.ar    1  UNL1        0.1029
     27 N          66.8269   93.9232   14.3524 N.ar    1  UNL1       -0.1483
     28 N          67.9881   94.6111   15.0069 N.ar    1  UNL1       -0.1524
     29 C          62.4711   84.9477    8.7312 C.3     1  UNL1        0.0714
     30 C          61.3716   85.2886    7.7694 C.3     1  UNL1        0.0922
     31 C          62.2331   84.8409    6.6259 C.3     1  UNL1        0.0294
     32 C          60.5102   85.7363    8.9129 C.3     1  UNL1        0.0294
     33 O          60.2722   85.6295    6.8076 O.3     1  UNL1       -0.3866
     34 H          60.5604   85.4300    5.9032 H       1  UNL1        0.2102
@<TRIPOS>BOND
     1    22    23    1
     2    23    24   ar
     3    24    25   ar
     4    25    26   ar
     5    26    16    1
     6    16    17   ar
     7    17    18   ar
     8    18    19   ar
     9    19    14    1
    10    14    15    1
    11    14     1    1
    12     1     2    1
    13     2     3    1
    14     3     4    1
    15     4    29    1
    16    29    30    1
    17    30    31    1
    18    30    32    1
    19    30    33    1
    20     4     8    1
    21     8     9   ar
    22     9    10   ar
    23    10    11   ar
    24    11    12   ar
    25    12    13   ar
    26     4     5    1
    27     5     6    1
    28     6     7    2
    29    19    20   ar
    30    20    21   ar
    31    26    27   ar
    32    27    28   ar
    33    28    23   ar
    34    21    16   ar
    35     6     1   am
    36    13     8   ar
    37    33    34    1
