@<TRIPOS>MOLECULE
*****
 34 36 0 0 0
SMALL
GASTEIGER

@<TRIPOS>ATOM
      1 N1         65.6325   90.3214   14.5897 N.am    1  <1>        -0.2946
      2 C1         64.2400   89.9629   15.0168 C.2     1  <1>         0.2618
      3 O1         63.1929   91.0306   15.1334 O.2     1  <1>        -0.2686
      4 H1         66.3197   89.6206   14.5131 H       1  <1>         0.1501
      5 C2         63.8945   88.5366   15.3272 C.ar    1  <1>         0.1107
      6 C3         63.5191   87.9934   16.6741 C.ar    1  <1>         0.0231
      7 C4         63.2564   86.5242   16.5246 C.ar    1  <1>         0.0186
      8 C5         63.4694   86.1593   15.0854 C.ar    1  <1>         0.0568
      9 N2         63.8638   87.4031   14.3454 N.ar    1  <1>        -0.3496
     10 H2         64.0669   87.4646   13.3840 H       1  <1>         0.1661
     11 C6         63.3152   84.7909   14.4905 C.ar    1  <1>         0.0178
     12 C7         62.2906   83.8445   15.0421 C.ar    1  <1>         0.0015
     13 C8         62.1364   82.4762   14.4472 C.ar    1  <1>         0.0062
     14 C9         63.0068   82.0543   13.3007 C.ar    1  <1>         0.0988
     15 C10        64.0315   83.0008   12.7492 C.ar    1  <1>         0.1441
     16 F1         64.9019   82.5789   11.6027 F       1  <1>        -0.2042
     17 C11        64.1857   84.3691   13.3440 C.ar    1  <1>         0.0310
     18 C12        62.8526   80.6859   12.7059 C.3     1  <1>         0.4207
     19 F2         62.6984   79.3176   12.1111 F       1  <1>        -0.1658
     20 F3         62.5619   81.3000   11.3686 F       1  <1>        -0.1658
     21 F4         63.1433   80.0719   14.0432 F       1  <1>        -0.1658
     22 C13        65.9779   91.7477   14.2793 C.3     1  <1>         0.1341
     23 C14        66.0381   92.2117   12.8541 C.ar    1  <1>         0.1071
     24 N3         67.2440   92.7708   12.1591 N.ar    1  <1>        -0.2428
     25 C15        66.8541   93.1026   10.7491 C.ar    1  <1>         0.0952
     26 C16        65.4072   92.7486   10.5728 C.ar    1  <1>         0.0538
     27 S1         64.9029   92.1979   11.8737 S.2     1  <1>        -0.0689
     28 C17        67.7532   93.6861    9.6998 C.3     1  <1>         0.1834
     29 O2         69.2284   93.4177    9.7424 O.3     1  <1>        -0.3760
     30 H3         69.6098   93.8325   10.5319 H       1  <1>         0.2110
     31 N4         65.3253   92.8056   16.5607 N.3     1  <1>        -0.3194
     32 C18        66.2632   92.7100   15.3940 C.3     1  <1>         0.0917
     33 H4         65.6711   93.5043   17.2185 H       1  <1>         0.1189
     34 H5         65.2679   91.8997   17.0259 H       1  <1>         0.1189
@<TRIPOS>BOND
     1    31    32    1
     2    22    32    1
     3    22     1    1
     4     1     2   am
     5     2     3    2
     6     2     5    1
     7     5     6   ar
     8     6     7   ar
     9     7     8   ar
    10     8    11    1
    11    11    12   ar
    12    12    13   ar
    13    13    14   ar
    14    14    18    1
    15    18    19    1
    16    18    20    1
    17    18    21    1
    18    14    15   ar
    19    15    16    1
    20    15    17   ar
    21     8     9   ar
    22    22    23    1
    23    23    24   ar
    24    24    25   ar
    25    25    28    1
    26    28    29    1
    27    25    26   ar
    28    26    27   ar
    29     9     5   ar
    30    27    23   ar
    31    17    11   ar
    32    31    33    1
    33    31    34    1
    34     1     4    1
    35     9    10    1
    36    29    30    1
@<TRIPOS>MOLECULE
*****
 34 36 0 0 0
SMALL
GASTEIGER

@<TRIPOS>ATOM
      1 N1         65.6559   90.2567   14.6063 N.am    1  <1>        -0.2946
      2 C1         64.2551   89.8598   14.9673 C.2     1  <1>         0.2618
      3 O1         63.1771   90.9000   15.0440 O.2     1  <1>        -0.2686
      4 H1         66.3635   89.5739   14.5560 H       1  <1>         0.1501
      5 C2         63.9324   88.4229   15.2517 C.ar    1  <1>         0.1107
      6 C3         63.6015   87.8426   16.5948 C.ar    1  <1>         0.0231
      7 C4         63.3484   86.3749   16.4161 C.ar    1  <1>         0.0186
      8 C5         63.5229   86.0481   14.9626 C.ar    1  <1>         0.0568
      9 N2         63.8838   87.3138   14.2429 N.ar    1  <1>        -0.3496
     10 H2         64.0581   87.4012   13.2780 H       1  <1>         0.1661
     11 C6         63.3643   84.6934   14.3382 C.ar    1  <1>         0.0178
     12 C7         64.3153   84.2446   13.2686 C.ar    1  <1>         0.0015
     13 C8         64.1566   82.8900   12.6443 C.ar    1  <1>         0.0062
     14 C9         63.0470   81.9842   13.0896 C.ar    1  <1>         0.0988
     15 C10        62.0961   82.4330   14.1592 C.ar    1  <1>         0.1441
     16 F1         60.9865   81.5272   14.6045 F       1  <1>        -0.2042
     17 C11        62.2547   83.7876   14.7835 C.ar    1  <1>         0.0310
     18 C12        62.8884   80.6295   12.4652 C.3     1  <1>         0.4207
     19 F2         62.7299   79.2749   11.8410 F       1  <1>        -0.1658
     20 F3         62.7536   81.2678   11.1146 F       1  <1>        -0.1658
     21 F4         63.0233   79.9913   13.8159 F       1  <1>        -0.1658
     22 C13        65.9787   91.6936   14.3220 C.3     1  <1>         0.1341
     23 C14        66.0372   92.1830   12.9053 C.ar    1  <1>         0.1071
     24 N3         67.2596   92.6851   12.1956 N.ar    1  <1>        -0.2428
     25 C15        66.8613   93.0686   10.8012 C.ar    1  <1>         0.0952
     26 C16        65.3928   92.8036   10.6491 C.ar    1  <1>         0.0538
     27 S1         64.8835   92.2562   11.9494 S.2     1  <1>        -0.0689
     28 C17        67.7718   93.6203    9.7445 C.3     1  <1>         0.1834
     29 O2         69.2397   93.3141    9.7847 O.3     1  <1>        -0.3760
     30 H3         69.6343   93.7251   10.5697 H       1  <1>         0.2110
     31 N4         65.2333   92.7979   16.5525 N.3     1  <1>        -0.3194
     32 C18        66.2430   92.6412   15.4543 C.3     1  <1>         0.0917
     33 H4         65.5739   93.4769   17.2332 H       1  <1>         0.1189
     34 H5         65.0887   91.8989   17.0121 H       1  <1>         0.1189
@<TRIPOS>BOND
     1    31    32    1
     2    22    32    1
     3    22     1    1
     4     1     2   am
     5     2     3    2
     6     2     5    1
     7     5     6   ar
     8     6     7   ar
     9     7     8   ar
    10     8    11    1
    11    11    12   ar
    12    12    13   ar
    13    13    14   ar
    14    14    18    1
    15    18    19    1
    16    18    20    1
    17    18    21    1
    18    14    15   ar
    19    15    16    1
    20    15    17   ar
    21     8     9   ar
    22    22    23    1
    23    23    24   ar
    24    24    25   ar
    25    25    28    1
    26    28    29    1
    27    25    26   ar
    28    26    27   ar
    29     9     5   ar
    30    27    23   ar
    31    17    11   ar
    32    31    33    1
    33    31    34    1
    34     1     4    1
    35     9    10    1
    36    29    30    1
@<TRIPOS>MOLECULE
*****
 34 36 0 0 0
SMALL
GASTEIGER

@<TRIPOS>ATOM
      1 N1         64.9136   90.3745   13.2706 N.am    1  <1>        -0.2946
      2 C1         63.6239   90.2341   12.5177 C.2     1  <1>         0.2618
      3 O1         62.8158   91.4520   12.1806 O.2     1  <1>        -0.2686
      4 H1         65.4440   89.5752   13.4919 H       1  <1>         0.1501
      5 C2         63.1422   88.8758   12.1019 C.ar    1  <1>         0.1107
      6 C3         62.3497   88.5609   10.8679 C.ar    1  <1>         0.0231
      7 C4         62.0861   87.0843   10.8505 C.ar    1  <1>         0.0186
      8 C5         62.7157   86.4866   12.0737 C.ar    1  <1>         0.0568
      9 N2         63.3684   87.5938   12.8471 N.ar    1  <1>        -0.3496
     10 H2         63.8591   87.4962   13.6950 H       1  <1>         0.1661
     11 C6         62.6961   85.0364   12.4563 C.ar    1  <1>         0.0178
     12 C7         62.5492   84.6425   13.8962 C.ar    1  <1>         0.0015
     13 C8         62.5297   83.1923   14.2788 C.ar    1  <1>         0.0062
     14 C9         62.6570   82.1359   13.2215 C.ar    1  <1>         0.0988
     15 C10        62.8039   82.5297   11.7817 C.ar    1  <1>         0.1441
     16 F1         62.9312   81.4734   10.7244 F       1  <1>        -0.2042
     17 C11        62.8235   83.9800   11.3991 C.ar    1  <1>         0.0310
     18 C12        62.6374   80.6856   13.6042 C.3     1  <1>         0.4207
     19 F2         62.6177   79.2354   13.9868 F       1  <1>        -0.1658
     20 F3         64.1372   80.6636   13.5978 F       1  <1>        -0.1658
     21 F4         61.1376   80.7076   13.6105 F       1  <1>        -0.1658
     22 C13        65.3953   91.7329   13.6864 C.3     1  <1>         0.1341
     23 C14        65.7547   92.7520   12.6462 C.ar    1  <1>         0.1071
     24 N3         65.8570   94.2330   12.8611 N.ar    1  <1>        -0.2428
     25 C15        66.2404   94.8654   11.5560 C.ar    1  <1>         0.0952
     26 C16        66.3752   93.7752   10.5346 C.ar    1  <1>         0.0538
     27 S1         66.0750   92.4691   11.2083 S.2     1  <1>        -0.0689
     28 C17        66.4520   96.3307   11.3149 C.3     1  <1>         0.1834
     29 O2         67.1013   96.7957   10.0452 O.3     1  <1>        -0.3760
     30 H3         68.0226   96.4929   10.0234 H       1  <1>         0.2110
     31 N4         66.5209   93.0919   15.5933 N.3     1  <1>        -0.3194
     32 C18        65.5175   92.0721   15.1425 C.3     1  <1>         0.0917
     33 H4         66.4674   93.1966   16.6065 H       1  <1>         0.1189
     34 H5         66.3194   93.9871   15.1478 H       1  <1>         0.1189
@<TRIPOS>BOND
     1    31    32    1
     2    22    32    1
     3    22     1    1
     4     1     2   am
     5     2     3    2
     6     2     5    1
     7     5     6   ar
     8     6     7   ar
     9     7     8   ar
    10     8    11    1
    11    11    12   ar
    12    12    13   ar
    13    13    14   ar
    14    14    18    1
    15    18    19    1
    16    18    20    1
    17    18    21    1
    18    14    15   ar
    19    15    16    1
    20    15    17   ar
    21     8     9   ar
    22    22    23    1
    23    23    24   ar
    24    24    25   ar
    25    25    28    1
    26    28    29    1
    27    25    26   ar
    28    26    27   ar
    29     9     5   ar
    30    27    23   ar
    31    17    11   ar
    32    31    33    1
    33    31    34    1
    34     1     4    1
    35     9    10    1
    36    29    30    1
@<TRIPOS>MOLECULE
*****
 34 36 0 0 0
SMALL
GASTEIGER

@<TRIPOS>ATOM
      1 N1         65.5438   91.1989   12.4331 N.am    1  <1>        -0.2946
      2 C1         64.2402   90.7445   13.0200 C.2     1  <1>         0.2618
      3 O1         63.5717   91.5622   14.0851 O.2     1  <1>        -0.2686
      4 H1         65.9826   90.6622   11.7340 H       1  <1>         0.1501
      5 C2         63.6052   89.4725   12.5418 C.ar    1  <1>         0.1107
      6 C3         62.6680   89.3380   11.3783 C.ar    1  <1>         0.0231
      7 C4         62.2795   87.8940   11.2605 C.ar    1  <1>         0.0186
      8 C5         62.9766   87.1360   12.3511 C.ar    1  <1>         0.0568
      9 N2         63.7960   88.1116   13.1429 N.ar    1  <1>        -0.3496
     10 H2         64.3599   87.8964   13.9207 H       1  <1>         0.1661
     11 C6         62.8727   85.6613   12.6053 C.ar    1  <1>         0.0178
     12 C7         62.6451   84.7174   11.4620 C.ar    1  <1>         0.0015
     13 C8         62.5411   83.2428   11.7162 C.ar    1  <1>         0.0062
     14 C9         62.6648   82.7121   13.1137 C.ar    1  <1>         0.0988
     15 C10        62.8924   83.6560   14.2570 C.ar    1  <1>         0.1441
     16 F1         63.0160   83.1253   15.6545 F       1  <1>        -0.2042
     17 C11        62.9963   85.1306   14.0028 C.ar    1  <1>         0.0310
     18 C12        62.5608   81.2374   13.3679 C.3     1  <1>         0.4207
     19 F2         62.4569   79.7628   13.6220 F       1  <1>        -0.1658
     20 F3         61.2050   81.4380   13.9774 F       1  <1>        -0.1658
     21 F4         63.9166   81.0368   12.7584 F       1  <1>        -0.1658
     22 C13        66.1788   92.4709   12.9113 C.3     1  <1>         0.1341
     23 C14        66.4136   93.5990   11.9511 C.ar    1  <1>         0.1071
     24 N3         67.0120   93.4804   10.5807 N.ar    1  <1>        -0.2428
     25 C15        67.0594   94.8520    9.9753 C.ar    1  <1>         0.0952
     26 C16        66.4903   95.8184   10.9715 C.ar    1  <1>         0.0538
     27 S1         66.0912   95.0440   12.1925 S.2     1  <1>        -0.0689
     28 C17        67.5839   95.1967    8.6129 C.3     1  <1>         0.1834
     29 O2         67.9345   96.6170    8.2815 O.3     1  <1>        -0.3760
     30 H3         67.1297   97.1585    8.2874 H       1  <1>         0.2110
     31 N4         65.5822   93.0985   15.3608 N.3     1  <1>        -0.3194
     32 C18        66.5790   92.6147   14.3498 C.3     1  <1>         0.0917
     33 H4         66.0215   93.1356   16.2806 H       1  <1>         0.1189
     34 H5         64.7883   92.4587   15.3887 H       1  <1>         0.1189
@<TRIPOS>BOND
     1    31    32    1
     2    22    32    1
     3    22     1    1
     4     1     2   am
     5     2     3    2
     6     2     5    1
     7     5     6   ar
     8     6     7   ar
     9     7     8   ar
    10     8    11    1
    11    11    12   ar
    12    12    13   ar
    13    13    14   ar
    14    14    18    1
    15    18    19    1
    16    18    20    1
    17    18    21    1
    18    14    15   ar
    19    15    16    1
    20    15    17   ar
    21     8     9   ar
    22    22    23    1
    23    23    24   ar
    24    24    25   ar
    25    25    28    1
    26    28    29    1
    27    25    26   ar
    28    26    27   ar
    29     9     5   ar
    30    27    23   ar
    31    17    11   ar
    32    31    33    1
    33    31    34    1
    34     1     4    1
    35     9    10    1
    36    29    30    1
@<TRIPOS>MOLECULE
*****
 34 36 0 0 0
SMALL
GASTEIGER

@<TRIPOS>ATOM
      1 N1         64.6436   87.9389   15.0765 N.am    1  <1>        -0.2946
      2 C1         64.1868   89.3553   14.8891 C.2     1  <1>         0.2618
      3 O1         62.7724   89.7362   15.2122 O.2     1  <1>        -0.2686
      4 H1         65.5719   87.6889   14.8644 H       1  <1>         0.1501
      5 C2         65.1443   90.3909   14.3785 C.ar    1  <1>         0.1107
      6 C3         66.4038   90.8390   15.0591 C.ar    1  <1>         0.0231
      7 C4         67.0484   91.8852   14.1990 C.ar    1  <1>         0.0186
      8 C5         66.1875   92.0837   12.9868 C.ar    1  <1>         0.0568
      9 N2         65.0107   91.1601   13.0978 N.ar    1  <1>        -0.3496
     10 H2         64.2791   91.0740   12.4447 H       1  <1>         0.1661
     11 C6         66.4561   93.0381   11.8612 C.ar    1  <1>         0.0178
     12 C7         65.9488   94.4477   11.9359 C.ar    1  <1>         0.0015
     13 C8         66.2174   95.4021   10.8103 C.ar    1  <1>         0.0062
     14 C9         66.9934   94.9469    9.6101 C.ar    1  <1>         0.0988
     15 C10        67.5008   93.5373    9.5354 C.ar    1  <1>         0.1441
     16 F1         68.2768   93.0821    8.3351 F       1  <1>        -0.2042
     17 C11        67.2322   92.5829   10.6610 C.ar    1  <1>         0.0310
     18 C12        67.2621   95.9014    8.4845 C.3     1  <1>         0.4207
     19 F2         67.5307   96.8558    7.3590 F       1  <1>        -0.1658
     20 F3         66.5592   94.9782    7.5339 F       1  <1>        -0.1658
     21 F4         67.9650   96.8245    9.4351 F       1  <1>        -0.1658
     22 C13        63.6860   86.9033   15.5871 C.3     1  <1>         0.1341
     23 C14        63.4515   85.6469   14.8020 C.ar    1  <1>         0.1071
     24 N3         62.9443   84.3462   15.3506 N.ar    1  <1>        -0.2428
     25 C15        62.8623   83.3660   14.2182 C.ar    1  <1>         0.0952
     26 C16        63.3188   84.0609   12.9696 C.ar    1  <1>         0.0538
     27 S1         63.6829   85.4705   13.3305 S.2     1  <1>        -0.0689
     28 C17        62.4042   81.9411   14.3169 C.3     1  <1>         0.1834
     29 O2         63.3939   80.8233   14.1722 O.3     1  <1>        -0.3760
     30 H3         63.7462   80.8183   13.2684 H       1  <1>         0.2110
     31 N4         61.6703   86.4123   17.1510 N.3     1  <1>        -0.3194
     32 C18        62.9630   87.1243   16.8826 C.3     1  <1>         0.0917
     33 H4         61.3206   86.6780   18.0716 H       1  <1>         0.1189
     34 H5         61.8252   85.4045   17.1240 H       1  <1>         0.1189
@<TRIPOS>BOND
     1    31    32    1
     2    22    32    1
     3    22     1    1
     4     1     2   am
     5     2     3    2
     6     2     5    1
     7     5     6   ar
     8     6     7   ar
     9     7     8   ar
    10     8    11    1
    11    11    12   ar
    12    12    13   ar
    13    13    14   ar
    14    14    18    1
    15    18    19    1
    16    18    20    1
    17    18    21    1
    18    14    15   ar
    19    15    16    1
    20    15    17   ar
    21     8     9   ar
    22    22    23    1
    23    23    24   ar
    24    24    25   ar
    25    25    28    1
    26    28    29    1
    27    25    26   ar
    28    26    27   ar
    29     9     5   ar
    30    27    23   ar
    31    17    11   ar
    32    31    33    1
    33    31    34    1
    34     1     4    1
    35     9    10    1
    36    29    30    1
@<TRIPOS>MOLECULE
*****
 34 36 0 0 0
SMALL
GASTEIGER

@<TRIPOS>ATOM
      1 N1         63.7172   89.2529   12.4405 N.am    1  <1>        -0.2946
      2 C1         63.6869   88.5898   13.7856 C.2     1  <1>         0.2618
      3 O1         63.4397   89.4067   15.0191 O.2     1  <1>        -0.2686
      4 H1         63.8794   88.7168   11.6309 H       1  <1>         0.1501
      5 C2         63.9038   87.1098   13.8972 C.ar    1  <1>         0.1107
      6 C3         64.6674   86.4099   14.9822 C.ar    1  <1>         0.0231
      7 C4         64.6307   84.9374   14.6990 C.ar    1  <1>         0.0186
      8 C5         63.8445   84.7271   13.4390 C.ar    1  <1>         0.0568
      9 N2         63.3952   86.0697   12.9435 N.ar    1  <1>        -0.3496
     10 H2         62.8605   86.2387   12.1343 H       1  <1>         0.1661
     11 C6         63.5578   83.4061   12.7886 C.ar    1  <1>         0.0178
     12 C7         64.1269   83.0971   11.4356 C.ar    1  <1>         0.0015
     13 C8         63.8402   81.7762   10.7854 C.ar    1  <1>         0.0062
     14 C9         62.9844   80.7643   11.4881 C.ar    1  <1>         0.0988
     15 C10        62.4154   81.0733   12.8411 C.ar    1  <1>         0.1441
     16 F1         61.5596   80.0614   13.5438 F       1  <1>        -0.2042
     17 C11        62.7021   82.3942   13.4913 C.ar    1  <1>         0.0310
     18 C12        62.6977   79.4433   10.8377 C.3     1  <1>         0.4207
     19 F2         62.4111   78.1224   10.1873 F       1  <1>        -0.1658
     20 F3         62.7122   78.7782   12.1821 F       1  <1>        -0.1658
     21 F4         62.6833   80.1083    9.4933 F       1  <1>        -0.1658
     22 C13        63.5003   90.7330   12.3288 C.3     1  <1>         0.1341
     23 C14        64.6160   91.6811   12.6546 C.ar    1  <1>         0.1071
     24 N3         65.1765   91.9473   14.0202 N.ar    1  <1>        -0.2428
     25 C15        66.2741   92.9603   13.8814 C.ar    1  <1>         0.0952
     26 C16        66.3919   93.3202   12.4300 C.ar    1  <1>         0.0538
     27 S1         65.3671   92.5297   11.6718 S.2     1  <1>        -0.0689
     28 C17        67.1075   93.5158   14.9980 C.3     1  <1>         0.1834
     29 O2         66.7268   93.2464   16.4237 O.3     1  <1>        -0.3760
     30 H3         65.8819   93.6805   16.6203 H       1  <1>         0.2110
     31 N4         60.9648   90.3686   11.8944 N.3     1  <1>        -0.3194
     32 C18        62.1676   91.2648   11.8915 C.3     1  <1>         0.0917
     33 H4         60.1509   90.8909   11.5703 H       1  <1>         0.1189
     34 H5         60.7960   90.0292   12.8414 H       1  <1>         0.1189
@<TRIPOS>BOND
     1    31    32    1
     2    22    32    1
     3    22     1    1
     4     1     2   am
     5     2     3    2
     6     2     5    1
     7     5     6   ar
     8     6     7   ar
     9     7     8   ar
    10     8    11    1
    11    11    12   ar
    12    12    13   ar
    13    13    14   ar
    14    14    18    1
    15    18    19    1
    16    18    20    1
    17    18    21    1
    18    14    15   ar
    19    15    16    1
    20    15    17   ar
    21     8     9   ar
    22    22    23    1
    23    23    24   ar
    24    24    25   ar
    25    25    28    1
    26    28    29    1
    27    25    26   ar
    28    26    27   ar
    29     9     5   ar
    30    27    23   ar
    31    17    11   ar
    32    31    33    1
    33    31    34    1
    34     1     4    1
    35     9    10    1
    36    29    30    1
@<TRIPOS>MOLECULE
*****
 34 36 0 0 0
SMALL
GASTEIGER

@<TRIPOS>ATOM
      1 N1         64.4095   89.3121   14.9422 N.am    1  <1>        -0.2946
      2 C1         63.7065   88.5235   16.0070 C.2     1  <1>         0.2618
      3 O1         63.2064   89.2112   17.2427 O.2     1  <1>        -0.2686
      4 H1         64.7377   88.8608   14.1311 H       1  <1>         0.1501
      5 C2         63.5036   87.0472   15.8361 C.ar    1  <1>         0.1107
      6 C3         63.2590   86.0576   16.9366 C.ar    1  <1>         0.0231
      7 C4         63.1139   84.7000   16.3154 C.ar    1  <1>         0.0186
      8 C5         63.2688   84.8505   14.8310 C.ar    1  <1>         0.0568
      9 N2         63.5096   86.3011   14.5348 N.ar    1  <1>        -0.3496
     10 H2         63.6475   86.6945   13.6429 H       1  <1>         0.1661
     11 C6         63.1957   83.7445   13.8202 C.ar    1  <1>         0.0178
     12 C7         62.2569   82.5943   14.0337 C.ar    1  <1>         0.0015
     13 C8         62.1839   81.4884   13.0229 C.ar    1  <1>         0.0062
     14 C9         63.0495   81.5328   11.7987 C.ar    1  <1>         0.0988
     15 C10        63.9883   82.6831   11.5853 C.ar    1  <1>         0.1441
     16 F1         64.8540   82.7274   10.3611 F       1  <1>        -0.2042
     17 C11        64.0614   83.7889   12.5961 C.ar    1  <1>         0.0310
     18 C12        62.9764   80.4269   10.7880 C.3     1  <1>         0.4207
     19 F2         62.9033   79.3210    9.7772 F       1  <1>        -0.1658
     20 F3         62.6631   79.4486   11.8810 F       1  <1>        -0.1658
     21 F4         63.2898   81.4052    9.6950 F       1  <1>        -0.1658
     22 C13        64.6124   90.7885   15.1130 C.3     1  <1>         0.1341
     23 C14        65.5023   91.5377   14.1661 C.ar    1  <1>         0.1071
     24 N3         65.0503   92.3673   13.0010 N.ar    1  <1>        -0.2428
     25 C15        66.2692   92.9312   12.3329 C.ar    1  <1>         0.0952
     26 C16        67.4745   92.4502   13.0851 C.ar    1  <1>         0.0538
     27 S1         67.0006   91.5890   14.2181 S.2     1  <1>        -0.0689
     28 C17        66.2807   93.8201   11.1247 C.3     1  <1>         0.1834
     29 O2         67.5373   93.9766   10.3207 O.3     1  <1>        -0.3760
     30 H3         68.2109   94.4231   10.8571 H       1  <1>         0.2110
     31 N4         64.6129   92.6592   16.9159 N.3     1  <1>        -0.3194
     32 C18        63.9254   91.5156   16.2308 C.3     1  <1>         0.0917
     33 H4         64.0056   93.0334   17.6451 H       1  <1>         0.1189
     34 H5         64.8167   93.3906   16.2348 H       1  <1>         0.1189
@<TRIPOS>BOND
     1    31    32    1
     2    22    32    1
     3    22     1    1
     4     1     2   am
     5     2     3    2
     6     2     5    1
     7     5     6   ar
     8     6     7   ar
     9     7     8   ar
    10     8    11    1
    11    11    12   ar
    12    12    13   ar
    13    13    14   ar
    14    14    18    1
    15    18    19    1
    16    18    20    1
    17    18    21    1
    18    14    15   ar
    19    15    16    1
    20    15    17   ar
    21     8     9   ar
    22    22    23    1
    23    23    24   ar
    24    24    25   ar
    25    25    28    1
    26    28    29    1
    27    25    26   ar
    28    26    27   ar
    29     9     5   ar
    30    27    23   ar
    31    17    11   ar
    32    31    33    1
    33    31    34    1
    34     1     4    1
    35     9    10    1
    36    29    30    1
@<TRIPOS>MOLECULE
*****
 34 36 0 0 0
SMALL
GASTEIGER

@<TRIPOS>ATOM
      1 N1         59.4228   92.2713    2.1310 N.am    1  <1>        -0.2946
      2 C1         59.4127   92.6538    3.5814 C.2     1  <1>         0.2618
      3 O1         59.7881   94.0467    3.9924 O.2     1  <1>        -0.2686
      4 H1         59.1764   91.3571    1.8613 H       1  <1>         0.1501
      5 C2         59.0270   91.6434    4.6208 C.ar    1  <1>         0.1107
      6 C3         57.6276   91.2684    5.0095 C.ar    1  <1>         0.0231
      7 C4         57.7088   90.2239    6.0830 C.ar    1  <1>         0.0186
      8 C5         59.1583   89.9533    6.3578 C.ar    1  <1>         0.0568
      9 N2         59.9731   90.8307    5.4541 N.ar    1  <1>        -0.3496
     10 H2         60.9561   90.8667    5.4149 H       1  <1>         0.1661
     11 C6         59.6984   88.9768    7.3602 C.ar    1  <1>         0.0178
     12 C7         59.3828   87.5163    7.2299 C.ar    1  <1>         0.0015
     13 C8         59.9229   86.5399    8.2323 C.ar    1  <1>         0.0062
     14 C9         60.7786   87.0241    9.3651 C.ar    1  <1>         0.0988
     15 C10        61.0942   88.4846    9.4955 C.ar    1  <1>         0.1441
     16 F1         61.9500   88.9688   10.6283 F       1  <1>        -0.2042
     17 C11        60.5542   89.4610    8.4931 C.ar    1  <1>         0.0310
     18 C12        61.3187   86.0476   10.3676 C.3     1  <1>         0.4207
     19 F2         61.8588   85.0712   11.3700 F       1  <1>        -0.1658
     20 F3         62.0952   85.3628    9.2822 F       1  <1>        -0.1658
     21 F4         60.5422   86.7324   11.4529 F       1  <1>        -0.1658
     22 C13        59.8085   93.2817    1.0916 C.3     1  <1>         0.1341
     23 C14        61.1802   93.8883    1.1079 C.ar    1  <1>         0.1071
     24 N3         62.4731   93.1410    1.2498 N.ar    1  <1>        -0.2428
     25 C15        63.5919   94.1396    1.2148 C.ar    1  <1>         0.0952
     26 C16        62.9905   95.5040    1.0513 C.ar    1  <1>         0.0538
     27 S1         61.5000   95.3487    0.9852 S.2     1  <1>        -0.0689
     28 C17        65.0551   93.8284    1.3241 C.3     1  <1>         0.1834
     29 O2         65.6497   92.7215    0.5049 O.3     1  <1>        -0.3760
     30 H3         65.2811   91.8719    0.7933 H       1  <1>         0.2110
     31 N4         57.7800   92.7119   -0.4284 N.3     1  <1>        -0.3194
     32 C18        58.8223   93.6855    0.0359 C.3     1  <1>         0.0917
     33 H4         57.1995   93.1505   -1.1433 H       1  <1>         0.1189
     34 H5         57.1964   92.4362    0.3614 H       1  <1>         0.1189
@<TRIPOS>BOND
     1    31    32    1
     2    22    32    1
     3    22     1    1
     4     1     2   am
     5     2     3    2
     6     2     5    1
     7     5     6   ar
     8     6     7   ar
     9     7     8   ar
    10     8    11    1
    11    11    12   ar
    12    12    13   ar
    13    13    14   ar
    14    14    18    1
    15    18    19    1
    16    18    20    1
    17    18    21    1
    18    14    15   ar
    19    15    16    1
    20    15    17   ar
    21     8     9   ar
    22    22    23    1
    23    23    24   ar
    24    24    25   ar
    25    25    28    1
    26    28    29    1
    27    25    26   ar
    28    26    27   ar
    29     9     5   ar
    30    27    23   ar
    31    17    11   ar
    32    31    33    1
    33    31    34    1
    34     1     4    1
    35     9    10    1
    36    29    30    1
@<TRIPOS>MOLECULE
*****
 34 36 0 0 0
SMALL
GASTEIGER

@<TRIPOS>ATOM
      1 N1         64.4251   89.2090   13.7520 N.am    1  <1>        -0.2946
      2 C1         63.9014   88.5418   14.9892 C.2     1  <1>         0.2618
      3 O1         63.5037   89.3684   16.1759 O.2     1  <1>        -0.2686
      4 H1         64.6862   88.6664   12.9731 H       1  <1>         0.1501
      5 C2         63.7755   87.0479   15.0396 C.ar    1  <1>         0.1107
      6 C3         63.8103   86.2014   16.2775 C.ar    1  <1>         0.0231
      7 C4         63.6490   84.7686   15.8639 C.ar    1  <1>         0.0186
      8 C5         63.5145   84.7295   14.3705 C.ar    1  <1>         0.0568
      9 N2         63.5927   86.1382   13.8610 N.ar    1  <1>        -0.3496
     10 H2         63.5342   86.4168   12.9186 H       1  <1>         0.1661
     11 C6         63.3335   83.4980   13.5334 C.ar    1  <1>         0.0178
     12 C7         62.5357   82.3428   14.0615 C.ar    1  <1>         0.0015
     13 C8         62.3548   81.1113   13.2244 C.ar    1  <1>         0.0062
     14 C9         62.9717   81.0351   11.8593 C.ar    1  <1>         0.0988
     15 C10        63.7695   82.1903   11.3312 C.ar    1  <1>         0.1441
     16 F1         64.3864   82.1141    9.9660 F       1  <1>        -0.2042
     17 C11        63.9504   83.4218   12.1683 C.ar    1  <1>         0.0310
     18 C12        62.7907   79.8035   11.0222 C.3     1  <1>         0.4207
     19 F2         62.6098   78.5721   10.1851 F       1  <1>        -0.1658
     20 F3         62.5658   78.9926   12.2638 F       1  <1>        -0.1658
     21 F4         63.0157   80.6145    9.7805 F       1  <1>        -0.1658
     22 C13        64.5510   90.7028   13.7016 C.3     1  <1>         0.1341
     23 C14        65.6147   91.3932   14.5027 C.ar    1  <1>         0.1071
     24 N3         67.0920   91.3233   14.2524 N.ar    1  <1>        -0.2428
     25 C15        67.7782   92.1617   15.2899 C.ar    1  <1>         0.0952
     26 C16        66.7249   92.7498   16.1814 C.ar    1  <1>         0.0538
     27 S1         65.3879   92.2749   15.6949 S.2     1  <1>        -0.0689
     28 C17        69.2578   92.3745   15.4140 C.3     1  <1>         0.1834
     29 O2         70.0931   92.5709   14.1837 O.3     1  <1>        -0.3760
     30 H3         70.0899   91.7561   13.6573 H       1  <1>         0.2110
     31 N4         63.1181   90.9489   11.5484 N.3     1  <1>        -0.3194
     32 C18        63.6133   91.5062   12.8500 C.3     1  <1>         0.0917
     33 H4         62.4949   91.6236   11.1047 H       1  <1>         0.1189
     34 H5         62.6115   90.0806   11.7211 H       1  <1>         0.1189
@<TRIPOS>BOND
     1    31    32    1
     2    22    32    1
     3    22     1    1
     4     1     2   am
     5     2     3    2
     6     2     5    1
     7     5     6   ar
     8     6     7   ar
     9     7     8   ar
    10     8    11    1
    11    11    12   ar
    12    12    13   ar
    13    13    14   ar
    14    14    18    1
    15    18    19    1
    16    18    20    1
    17    18    21    1
    18    14    15   ar
    19    15    16    1
    20    15    17   ar
    21     8     9   ar
    22    22    23    1
    23    23    24   ar
    24    24    25   ar
    25    25    28    1
    26    28    29    1
    27    25    26   ar
    28    26    27   ar
    29     9     5   ar
    30    27    23   ar
    31    17    11   ar
    32    31    33    1
    33    31    34    1
    34     1     4    1
    35     9    10    1
    36    29    30    1
