@<TRIPOS>MOLECULE
*****
 29 32 0 0 0
SMALL
GASTEIGER

@<TRIPOS>ATOM
      1 C          63.9286   88.9860   14.5528 C.2     1  UNL1        0.2640
      2 O          63.0434   89.2250   15.7399 O.2     1  UNL1       -0.2685
      3 N          64.2845   87.5849   14.1525 N.am    1  UNL1       -0.2942
      4 H          64.8655   87.4281   13.3734 H       1  UNL1        0.1502
      5 C          63.7551   86.4227   14.9394 C.3     1  UNL1        0.1436
      6 C          63.5728   86.3754   16.4275 C.3     1  UNL1        0.2294
      7 O          63.0201   85.0273   16.7841 O.3     1  UNL1       -0.4735
      8 C          62.8608   84.2415   15.5163 C.ar    1  UNL1        0.1385
      9 C          62.3607   82.8521   15.2528 C.ar    1  UNL1        0.0376
     10 C          62.3150   82.3251   13.8491 C.ar    1  UNL1        0.0168
     11 C          62.7692   83.1876   12.7090 C.ar    1  UNL1        0.0850
     12 CL         62.7234   82.6606   11.3054 Cl      1  UNL1       -0.0799
     13 C          63.2692   84.5770   12.9726 C.ar    1  UNL1        0.1512
     14 F          63.7235   85.4395   11.8325 F       1  UNL1       -0.2035
     15 C          63.3150   85.1040   14.3762 C.ar    1  UNL1        0.0614
     16 C          66.2434   92.0032   13.4176 C.ar    1  UNL1        0.2417
     17 N          65.7141   90.8410   14.2044 N.ar    1  UNL1       -0.2058
     18 C          64.4580   90.1483   13.7660 C.ar    1  UNL1        0.1376
     19 C          63.7312   90.6177   12.5407 C.ar    1  UNL1        0.0255
     20 C          64.2604   91.7799   11.7538 C.ar    1  UNL1        0.0240
     21 C          65.5165   92.4726   12.1923 C.ar    1  UNL1        0.1189
     22 N          66.0458   93.6348   11.4054 N.ar    1  UNL1       -0.2826
     23 C          66.1627   95.0489   11.8918 C.ar    1  UNL1        0.1826
     24 N          66.7403   95.8751   10.7810 N.ar    1  UNL1       -0.2280
     25 C          66.9803   94.9714    9.6080 C.ar    1  UNL1        0.0786
     26 C          67.5496   95.3806    8.2819 C.3     1  UNL1        0.0538
     27 C          66.5511   93.5869    9.9939 C.ar    1  UNL1        0.0963
     28 C          67.5201   93.4692   15.1411 C.3     1  UNL1        0.2543
     29 O          67.4995   92.6959   13.8560 O.3     1  UNL1       -0.4551
@<TRIPOS>BOND
     1    28    29    1
     2    29    16    1
     3    16    17   ar
     4    17    18   ar
     5    18     1    1
     6     1     2    2
     7     1     3   am
     8     5     3    1
     9     5     6    1
    10     6     7    1
    11     7     8    1
    12     8     9   ar
    13     9    10   ar
    14    10    11   ar
    15    11    12    1
    16    11    13   ar
    17    13    14    1
    18    13    15   ar
    19    18    19   ar
    20    19    20   ar
    21    20    21   ar
    22    21    22    1
    23    22    23   ar
    24    23    24   ar
    25    24    25   ar
    26    25    26    1
    27    25    27   ar
    28    21    16   ar
    29    27    22   ar
    30    15     5    1
    31    15     8   ar
    32     3     4    1
@<TRIPOS>MOLECULE
*****
 29 32 0 0 0
SMALL
GASTEIGER

@<TRIPOS>ATOM
      1 C          63.9279   88.8470   14.6388 C.2     1  UNL1        0.2640
      2 O          63.0910   89.0721   15.8631 O.2     1  UNL1       -0.2685
      3 N          64.2345   87.4501   14.1864 N.am    1  UNL1       -0.2942
      4 H          64.7838   87.3023   13.3828 H       1  UNL1        0.1502
      5 C          63.7042   86.2784   14.9583 C.3     1  UNL1        0.1436
      6 C          63.5135   86.2152   16.4448 C.3     1  UNL1        0.2294
      7 O          62.9630   84.8619   16.7843 O.3     1  UNL1       -0.4735
      8 C          62.8134   84.0886   15.5078 C.ar    1  UNL1        0.1385
      9 C          62.3193   82.7004   15.2272 C.ar    1  UNL1        0.0376
     10 C          62.2832   82.1876   13.8179 C.ar    1  UNL1        0.0168
     11 C          62.7414   83.0631   12.6894 C.ar    1  UNL1        0.0850
     12 CL         62.7053   82.5504   11.2802 Cl      1  UNL1       -0.0799
     13 C          63.2355   84.4513   12.9700 C.ar    1  UNL1        0.1512
     14 F          63.6936   85.3268   11.8414 F       1  UNL1       -0.2035
     15 C          63.2715   84.9640   14.3792 C.ar    1  UNL1        0.0614
     16 C          64.3660   91.5686   11.7839 C.ar    1  UNL1        0.2417
     17 N          63.8357   90.3968   12.5556 N.ar    1  UNL1       -0.2058
     18 C          64.4582   90.0188   13.8670 C.ar    1  UNL1        0.1376
     19 C          65.6108   90.8126   14.4066 C.ar    1  UNL1        0.0255
     20 C          66.1411   91.9844   13.6348 C.ar    1  UNL1        0.0240
     21 C          65.5187   92.3624   12.3235 C.ar    1  UNL1        0.1189
     22 N          66.0490   93.5342   11.5517 N.ar    1  UNL1       -0.2826
     23 C          66.1650   94.9422   12.0556 C.ar    1  UNL1        0.1826
     24 N          66.7441   95.7820   10.9559 N.ar    1  UNL1       -0.2280
     25 C          66.9860   94.8929    9.7722 C.ar    1  UNL1        0.0786
     26 C          67.5573   95.3183    8.4520 C.3     1  UNL1        0.0538
     27 C          66.5564   93.5037   10.1405 C.ar    1  UNL1        0.0963
     28 C          62.7141   91.0537    9.8459 C.3     1  UNL1        0.2543
     29 O          63.7436   91.9466   10.4725 O.3     1  UNL1       -0.4551
@<TRIPOS>BOND
     1    28    29    1
     2    29    16    1
     3    16    17   ar
     4    17    18   ar
     5    18     1    1
     6     1     2    2
     7     1     3   am
     8     5     3    1
     9     5     6    1
    10     6     7    1
    11     7     8    1
    12     8     9   ar
    13     9    10   ar
    14    10    11   ar
    15    11    12    1
    16    11    13   ar
    17    13    14    1
    18    13    15   ar
    19    18    19   ar
    20    19    20   ar
    21    20    21   ar
    22    21    22    1
    23    22    23   ar
    24    23    24   ar
    25    24    25   ar
    26    25    26    1
    27    25    27   ar
    28    21    16   ar
    29    27    22   ar
    30    15     5    1
    31    15     8   ar
    32     3     4    1
@<TRIPOS>MOLECULE
*****
 29 32 0 0 0
SMALL
GASTEIGER

@<TRIPOS>ATOM
      1 C          63.7293   89.2491   13.6621 C.2     1  UNL1        0.2640
      2 O          63.8440   88.5293   14.9731 O.2     1  UNL1       -0.2685
      3 N          64.1713   90.6781   13.5499 N.am    1  UNL1       -0.2942
      4 H          64.0960   91.1505   12.6895 H       1  UNL1        0.1502
      5 C          64.7279   91.3873   14.7487 C.3     1  UNL1        0.1436
      6 C          63.9682   91.7497   15.9903 C.3     1  UNL1        0.2294
      7 O          64.9129   92.4450   16.9253 O.3     1  UNL1       -0.4735
      8 C          66.2564   92.5123   16.2616 C.ar    1  UNL1        0.1385
      9 C          67.5690   93.0843   16.7084 C.ar    1  UNL1        0.0376
     10 C          68.7675   93.0027   15.8099 C.ar    1  UNL1        0.0168
     11 C          68.6532   92.3489   14.4647 C.ar    1  UNL1        0.0850
     12 CL         69.8515   92.2672   13.5663 Cl      1  UNL1       -0.0799
     13 C          67.3404   91.7769   14.0180 C.ar    1  UNL1        0.1512
     14 F          67.2261   91.1231   12.6728 F       1  UNL1       -0.2035
     15 C          66.1421   91.8585   14.9164 C.ar    1  UNL1        0.0614
     16 C          62.4465   86.3403   11.2865 C.ar    1  UNL1        0.2417
     17 N          63.0032   87.0495   12.4853 N.ar    1  UNL1       -0.2058
     18 C          63.1726   88.5397   12.4633 C.ar    1  UNL1        0.1376
     19 C          62.7853   89.3208   11.2427 C.ar    1  UNL1        0.0255
     20 C          62.2286   88.6115   10.0439 C.ar    1  UNL1        0.0240
     21 C          62.0592   87.1213   10.0658 C.ar    1  UNL1        0.1189
     22 N          61.5025   86.4121    8.8670 N.ar    1  UNL1       -0.2826
     23 C          60.0737   86.4389    8.4115 C.ar    1  UNL1        0.1826
     24 N          59.9650   85.5949    7.1762 N.ar    1  UNL1       -0.2280
     25 C          61.3268   85.0465    6.8683 C.ar    1  UNL1        0.0786
     26 C          61.6769   84.1504    5.7174 C.3     1  UNL1        0.0538
     27 C          62.2771   85.5516    7.9133 C.ar    1  UNL1        0.0963
     28 C          62.9277   84.0371   12.3880 C.3     1  UNL1        0.2543
     29 O          62.2770   84.8501   11.3084 O.3     1  UNL1       -0.4551
@<TRIPOS>BOND
     1    28    29    1
     2    29    16    1
     3    16    17   ar
     4    17    18   ar
     5    18     1    1
     6     1     2    2
     7     1     3   am
     8     5     3    1
     9     5     6    1
    10     6     7    1
    11     7     8    1
    12     8     9   ar
    13     9    10   ar
    14    10    11   ar
    15    11    12    1
    16    11    13   ar
    17    13    14    1
    18    13    15   ar
    19    18    19   ar
    20    19    20   ar
    21    20    21   ar
    22    21    22    1
    23    22    23   ar
    24    23    24   ar
    25    24    25   ar
    26    25    26    1
    27    25    27   ar
    28    21    16   ar
    29    27    22   ar
    30    15     5    1
    31    15     8   ar
    32     3     4    1
@<TRIPOS>MOLECULE
*****
 29 32 0 0 0
SMALL
GASTEIGER

@<TRIPOS>ATOM
      1 C          64.3605   90.1727   13.9483 C.2     1  UNL1        0.2640
      2 O          63.4155   91.0254   14.7419 O.2     1  UNL1       -0.2685
      3 N          65.5816   90.7842   13.3279 N.am    1  UNL1       -0.2942
      4 H          66.2019   90.2246   12.8070 H       1  UNL1        0.1502
      5 C          65.8577   92.2484   13.5011 C.3     1  UNL1        0.1436
      6 C          65.9198   92.9856   14.8060 C.3     1  UNL1        0.2294
      7 O          66.2206   94.4252   14.5112 O.3     1  UNL1       -0.4735
      8 C          66.3445   94.5778   13.0241 C.ar    1  UNL1        0.1385
      9 C          66.6326   95.7679   12.1578 C.ar    1  UNL1        0.0376
     10 C          66.6964   95.6128   10.6672 C.ar    1  UNL1        0.0168
     11 C          66.4721   94.2674   10.0429 C.ar    1  UNL1        0.0850
     12 CL         66.5359   94.1122    8.5524 Cl      1  UNL1       -0.0799
     13 C          66.1840   93.0772   10.9093 C.ar    1  UNL1        0.1512
     14 F          65.9597   91.7319   10.2850 F       1  UNL1       -0.2035
     15 C          66.1202   93.2324   12.3998 C.ar    1  UNL1        0.0614
     16 C          63.0339   86.7630   12.4109 C.ar    1  UNL1        0.2417
     17 N          63.3101   88.2271   12.5840 N.ar    1  UNL1       -0.2058
     18 C          64.0843   88.7085   13.7751 C.ar    1  UNL1        0.1376
     19 C          64.5825   87.7259   14.7930 C.ar    1  UNL1        0.0255
     20 C          64.3064   86.2617   14.6199 C.ar    1  UNL1        0.0240
     21 C          63.5321   85.7803   13.4288 C.ar    1  UNL1        0.1189
     22 N          63.2560   84.3161   13.2557 N.ar    1  UNL1       -0.2826
     23 C          63.9080   83.4081   12.2556 C.ar    1  UNL1        0.1826
     24 N          63.3344   82.0337   12.4341 N.ar    1  UNL1       -0.2280
     25 C          62.3277   82.0923   13.5446 C.ar    1  UNL1        0.0786
     26 C          61.5125   80.9422   14.0573 C.3     1  UNL1        0.0538
     27 C          62.2792   83.5029   14.0524 C.ar    1  UNL1        0.0963
     28 C          61.0911   87.0745   10.7143 C.3     1  UNL1        0.2543
     29 O          62.2597   86.2814   11.2198 O.3     1  UNL1       -0.4551
@<TRIPOS>BOND
     1    28    29    1
     2    29    16    1
     3    16    17   ar
     4    17    18   ar
     5    18     1    1
     6     1     2    2
     7     1     3   am
     8     5     3    1
     9     5     6    1
    10     6     7    1
    11     7     8    1
    12     8     9   ar
    13     9    10   ar
    14    10    11   ar
    15    11    12    1
    16    11    13   ar
    17    13    14    1
    18    13    15   ar
    19    18    19   ar
    20    19    20   ar
    21    20    21   ar
    22    21    22    1
    23    22    23   ar
    24    23    24   ar
    25    24    25   ar
    26    25    26    1
    27    25    27   ar
    28    21    16   ar
    29    27    22   ar
    30    15     5    1
    31    15     8   ar
    32     3     4    1
@<TRIPOS>MOLECULE
*****
 29 32 0 0 0
SMALL
GASTEIGER

@<TRIPOS>ATOM
      1 C          64.2066   90.2723   13.6571 C.2     1  UNL1        0.2640
      2 O          63.1988   91.1651   14.3184 O.2     1  UNL1       -0.2685
      3 N          65.5220   90.8329   13.2037 N.am    1  UNL1       -0.2942
      4 H          66.1835   90.2470   12.7697 H       1  UNL1        0.1502
      5 C          65.8295   92.2863   13.4115 C.3     1  UNL1        0.1436
      6 C          65.9147   92.9891   14.7339 C.3     1  UNL1        0.2294
      7 O          66.2436   94.4292   14.4730 O.3     1  UNL1       -0.4735
      8 C          66.3617   94.6163   12.9894 C.ar    1  UNL1        0.1385
      9 C          66.6692   95.8216   12.1511 C.ar    1  UNL1        0.0376
     10 C          66.7207   95.7024   10.6567 C.ar    1  UNL1        0.0168
     11 C          66.4648   94.3780   10.0006 C.ar    1  UNL1        0.0850
     12 CL         66.5163   94.2588    8.5063 Cl      1  UNL1       -0.0799
     13 C          66.1573   93.1727   10.8390 C.ar    1  UNL1        0.1512
     14 F          65.9013   91.8483   10.1829 F       1  UNL1       -0.2035
     15 C          66.1057   93.2919   12.3333 C.ar    1  UNL1        0.0614
     16 C          63.9759   86.3607   14.2867 C.ar    1  UNL1        0.2417
     17 N          64.2836   87.8141   14.4945 N.ar    1  UNL1       -0.2058
     18 C          63.8991   88.8189   13.4494 C.ar    1  UNL1        0.1376
     19 C          63.2070   88.3705   12.1964 C.ar    1  UNL1        0.0255
     20 C          62.8993   86.9171   11.9886 C.ar    1  UNL1        0.0240
     21 C          63.2839   85.9123   13.0338 C.ar    1  UNL1        0.1189
     22 N          62.9762   84.4590   12.8259 N.ar    1  UNL1       -0.2826
     23 C          63.1911   83.6846   11.5594 C.ar    1  UNL1        0.1826
     24 N          62.7474   82.2718   11.7988 N.ar    1  UNL1       -0.2280
     25 C          62.2583   82.1732   13.2135 C.ar    1  UNL1        0.0786
     26 C          61.7219   80.9393   13.8769 C.3     1  UNL1        0.0538
     27 C          62.3997   83.5249   13.8482 C.ar    1  UNL1        0.0963
     28 C          63.6852   85.3709   16.6712 C.3     1  UNL1        0.2543
     29 O          64.3604   85.3558   15.3318 O.3     1  UNL1       -0.4551
@<TRIPOS>BOND
     1    28    29    1
     2    29    16    1
     3    16    17   ar
     4    17    18   ar
     5    18     1    1
     6     1     2    2
     7     1     3   am
     8     5     3    1
     9     5     6    1
    10     6     7    1
    11     7     8    1
    12     8     9   ar
    13     9    10   ar
    14    10    11   ar
    15    11    12    1
    16    11    13   ar
    17    13    14    1
    18    13    15   ar
    19    18    19   ar
    20    19    20   ar
    21    20    21   ar
    22    21    22    1
    23    22    23   ar
    24    23    24   ar
    25    24    25   ar
    26    25    26    1
    27    25    27   ar
    28    21    16   ar
    29    27    22   ar
    30    15     5    1
    31    15     8   ar
    32     3     4    1
@<TRIPOS>MOLECULE
*****
 29 32 0 0 0
SMALL
GASTEIGER

@<TRIPOS>ATOM
      1 C          62.8267   90.4907   10.7805 C.2     1  UNL1        0.2640
      2 O          62.5642   91.2493    9.5133 O.2     1  UNL1       -0.2685
      3 N          62.0243   89.2643   11.1003 N.am    1  UNL1       -0.2942
      4 H          62.1966   88.7664   11.9319 H       1  UNL1        0.1502
      5 C          60.9595   88.7967   10.1529 C.3     1  UNL1        0.1436
      6 C          59.6240   89.4449    9.9380 C.3     1  UNL1        0.2294
      7 O          58.8823   88.6475    8.9065 O.3     1  UNL1       -0.4735
      8 C          59.7595   87.5064    8.4839 C.ar    1  UNL1        0.1385
      9 C          59.5551   86.3953    7.4971 C.ar    1  UNL1        0.0376
     10 C          60.6345   85.3764    7.2807 C.ar    1  UNL1        0.0168
     11 C          61.9182   85.4686    8.0511 C.ar    1  UNL1        0.0850
     12 CL         62.9976   84.4498    7.8347 Cl      1  UNL1       -0.0799
     13 C          62.1226   86.5798    9.0379 C.ar    1  UNL1        0.1512
     14 F          63.4064   86.6720    9.8082 F       1  UNL1       -0.2035
     15 C          61.0432   87.5986    9.2542 C.ar    1  UNL1        0.0614
     16 C          65.9056   92.5109   12.2600 C.ar    1  UNL1        0.2417
     17 N          64.8408   92.0432   11.3127 N.ar    1  UNL1       -0.2058
     18 C          63.8916   90.9584   11.7277 C.ar    1  UNL1        0.1376
     19 C          64.0072   90.3414   13.0900 C.ar    1  UNL1        0.0255
     20 C          65.0720   90.8091   14.0373 C.ar    1  UNL1        0.0240
     21 C          66.0212   91.8938   13.6223 C.ar    1  UNL1        0.1189
     22 N          67.0860   92.3615   14.5696 N.ar    1  UNL1       -0.2826
     23 C          67.9132   91.4892   15.4666 C.ar    1  UNL1        0.1826
     24 N          68.8490   92.3722   16.2377 N.ar    1  UNL1       -0.2280
     25 C          68.6002   93.7904   15.8170 C.ar    1  UNL1        0.0786
     26 C          69.3154   95.0025   16.3362 C.3     1  UNL1        0.0538
     27 C          67.5106   93.7838   14.7861 C.ar    1  UNL1        0.0963
     28 C          66.8446   94.1014   10.4329 C.3     1  UNL1        0.2543
     29 O          66.8548   93.5956   11.8450 O.3     1  UNL1       -0.4551
@<TRIPOS>BOND
     1    28    29    1
     2    29    16    1
     3    16    17   ar
     4    17    18   ar
     5    18     1    1
     6     1     2    2
     7     1     3   am
     8     5     3    1
     9     5     6    1
    10     6     7    1
    11     7     8    1
    12     8     9   ar
    13     9    10   ar
    14    10    11   ar
    15    11    12    1
    16    11    13   ar
    17    13    14    1
    18    13    15   ar
    19    18    19   ar
    20    19    20   ar
    21    20    21   ar
    22    21    22    1
    23    22    23   ar
    24    23    24   ar
    25    24    25   ar
    26    25    26    1
    27    25    27   ar
    28    21    16   ar
    29    27    22   ar
    30    15     5    1
    31    15     8   ar
    32     3     4    1
@<TRIPOS>MOLECULE
*****
 29 32 0 0 0
SMALL
GASTEIGER

@<TRIPOS>ATOM
      1 C          59.5480   89.1648    6.9863 C.2     1  UNL1        0.2640
      2 O          58.0579   89.1302    6.8184 O.2     1  UNL1       -0.2685
      3 N          60.3713   90.1269    6.1823 N.am    1  UNL1       -0.2942
      4 H          61.3493   90.1496    6.2925 H       1  UNL1        0.1502
      5 C          59.7043   91.0546    5.2103 C.3     1  UNL1        0.1436
      6 C          58.2595   91.4574    5.2255 C.3     1  UNL1        0.2294
      7 O          58.0274   92.3941    4.0771 O.3     1  UNL1       -0.4735
      8 C          59.3288   92.5702    3.3522 C.ar    1  UNL1        0.1385
      9 C          59.7039   93.3774    2.1449 C.ar    1  UNL1        0.0376
     10 C          61.1156   93.3567    1.6379 C.ar    1  UNL1        0.0168
     11 C          62.1520   92.5289    2.3383 C.ar    1  UNL1        0.0850
     12 CL         63.5635   92.5082    1.8314 Cl      1  UNL1       -0.0799
     13 C          61.7768   91.7217    3.5457 C.ar    1  UNL1        0.1512
     14 F          62.8132   90.8938    4.2461 F       1  UNL1       -0.2035
     15 C          60.3652   91.7423    4.0526 C.ar    1  UNL1        0.0614
     16 C          61.6784   87.8662   10.0726 C.ar    1  UNL1        0.2417
     17 N          61.0116   88.7939    9.1006 N.ar    1  UNL1       -0.2058
     18 C          60.2149   88.2370    7.9583 C.ar    1  UNL1        0.1376
     19 C          60.0849   86.7524    7.7878 C.ar    1  UNL1        0.0255
     20 C          60.7518   85.8247    8.7597 C.ar    1  UNL1        0.0240
     21 C          61.5485   86.3816    9.9021 C.ar    1  UNL1        0.1189
     22 N          62.2153   85.4538   10.8740 N.ar    1  UNL1       -0.2826
     23 C          62.0865   85.5005   12.3677 C.ar    1  UNL1        0.1826
     24 N          62.9196   84.3920   12.9397 N.ar    1  UNL1       -0.2280
     25 C          63.5633   83.6602   11.7994 C.ar    1  UNL1        0.0786
     26 C          64.4812   82.4794   11.9155 C.3     1  UNL1        0.0538
     27 C          63.1280   84.3164   10.5228 C.ar    1  UNL1        0.0963
     28 C          62.0497   89.7020   11.8730 C.3     1  UNL1        0.2543
     29 O          62.4752   88.4230   11.2150 O.3     1  UNL1       -0.4551
@<TRIPOS>BOND
     1    28    29    1
     2    29    16    1
     3    16    17   ar
     4    17    18   ar
     5    18     1    1
     6     1     2    2
     7     1     3   am
     8     5     3    1
     9     5     6    1
    10     6     7    1
    11     7     8    1
    12     8     9   ar
    13     9    10   ar
    14    10    11   ar
    15    11    12    1
    16    11    13   ar
    17    13    14    1
    18    13    15   ar
    19    18    19   ar
    20    19    20   ar
    21    20    21   ar
    22    21    22    1
    23    22    23   ar
    24    23    24   ar
    25    24    25   ar
    26    25    26    1
    27    25    27   ar
    28    21    16   ar
    29    27    22   ar
    30    15     5    1
    31    15     8   ar
    32     3     4    1
