@<TRIPOS>MOLECULE
*****
 33 37 0 0 0
SMALL
GASTEIGER

@<TRIPOS>ATOM
      1 C          62.7669   86.8746   11.9102 C.2     1  UNL1        0.2506
      2 O          63.5731   87.4940   13.0130 O.2     1  UNL1       -0.2699
      3 N          61.7680   87.7013   11.1561 N.am    1  UNL1       -0.2723
      4 C          60.9617   87.0819   10.0532 C.3     1  UNL1        0.1257
      5 C          59.9629   87.9086    9.2990 C.3     1  UNL1        0.1637
      6 O          59.7702   89.3547    9.6477 O.3     1  UNL1       -0.3502
      7 C          60.5765   89.9741   10.7506 C.3     1  UNL1        0.1622
      8 C          61.5754   89.1474   11.5048 C.3     1  UNL1        0.1097
      9 C          63.5374   81.0900   10.5154 C.3     1  UNL1        0.0311
     10 C          63.3448   82.5361   10.8641 C.ar    1  UNL1       -0.0203
     11 C          63.1903   83.5561    9.7752 C.ar    1  UNL1       -0.0040
     12 C          62.9977   85.0022   10.1239 C.ar    1  UNL1        0.0058
     13 C          62.9595   85.4284   11.5615 C.ar    1  UNL1        0.0729
     14 C          63.1140   84.4085   12.6504 C.ar    1  UNL1        0.1069
     15 C          63.3066   82.9623   12.3017 C.ar    1  UNL1        0.0168
     16 N          63.0758   84.8347   14.0882 N.ar    1  UNL1       -0.1477
     17 N          64.2281   85.3839   14.8759 N.ar    1  UNL1       -0.1447
     18 C          63.7432   85.6751   16.2651 C.ar    1  UNL1        0.1446
     19 C          62.2910   85.3059   16.3360 C.ar    1  UNL1        0.1446
     20 N          61.8786   84.7865   14.9906 N.ar    1  UNL1       -0.1447
     21 C          62.3816   89.7668   12.6076 C.3     1  UNL1        0.0510
     22 C          63.5161   90.6915   12.2790 C.ar    1  UNL1        0.0086
     23 C          64.5115   91.0631   13.3377 C.ar    1  UNL1        0.0189
     24 C          65.6460   91.9878   13.0091 C.ar    1  UNL1        0.1027
     25 C          65.7851   92.5407   11.6218 C.ar    1  UNL1        0.0232
     26 C          64.7897   92.1691   10.5630 C.ar    1  UNL1        0.0309
     27 C          63.6552   91.2444   10.8916 C.ar    1  UNL1        0.1363
     28 F          62.6598   90.8728    9.8328 F       1  UNL1       -0.2045
     29 N          66.6414   92.3594   14.0680 N.ar    1  UNL1       -0.1478
     30 N          66.3214   92.7538   15.4794 N.ar    1  UNL1       -0.1447
     31 C          67.6137   93.0401   16.1851 C.ar    1  UNL1        0.1446
     32 C          68.7325   92.8226   15.2097 C.ar    1  UNL1        0.1446
     33 N          68.1315   92.4020   13.9013 N.ar    1  UNL1       -0.1447
@<TRIPOS>BOND
     1     9    10    1
     2    10    11   ar
     3    11    12   ar
     4    12    13   ar
     5    13     1    1
     6     1     2    2
     7     1     3   am
     8     3     4    1
     9     4     5    1
    10     5     6    1
    11     6     7    1
    12     7     8    1
    13     8    21    1
    14    21    22    1
    15    22    23   ar
    16    23    24   ar
    17    24    29    1
    18    29    30   ar
    19    30    31   ar
    20    31    32   ar
    21    32    33   ar
    22    24    25   ar
    23    25    26   ar
    24    26    27   ar
    25    27    28    1
    26    13    14   ar
    27    14    16    1
    28    16    17   ar
    29    17    18   ar
    30    18    19   ar
    31    19    20   ar
    32    14    15   ar
    33    15    10   ar
    34     8     3    1
    35    27    22   ar
    36    20    16   ar
    37    33    29   ar
@<TRIPOS>MOLECULE
*****
 33 37 0 0 0
SMALL
GASTEIGER

@<TRIPOS>ATOM
      1 C          62.9954   87.0660   12.2695 C.2     1  UNL1        0.2506
      2 O          63.5763   87.4783   13.5896 O.2     1  UNL1       -0.2699
      3 N          62.3229   88.0829   11.3958 N.am    1  UNL1       -0.2723
      4 C          61.7420   87.6707   10.0756 C.3     1  UNL1        0.1257
      5 C          61.0694   88.6876    9.2019 C.3     1  UNL1        0.1637
      6 O          60.9777   90.1167    9.6482 O.3     1  UNL1       -0.3502
      7 C          61.5585   90.5290   10.9682 C.3     1  UNL1        0.1622
      8 C          62.2311   89.5121   11.8421 C.3     1  UNL1        0.1097
      9 C          63.3624   81.3495   10.4843 C.3     1  UNL1        0.0311
     10 C          63.2707   82.7787   10.9306 C.ar    1  UNL1       -0.0203
     11 C          63.2047   83.8792    9.9136 C.ar    1  UNL1       -0.0040
     12 C          63.1130   85.3084   10.3599 C.ar    1  UNL1        0.0058
     13 C          63.0872   85.6369   11.8232 C.ar    1  UNL1        0.0729
     14 C          63.1531   84.5364   12.8403 C.ar    1  UNL1        0.1069
     15 C          63.2448   83.1072   12.3939 C.ar    1  UNL1        0.0168
     16 N          63.1273   84.8649   14.3037 N.ar    1  UNL1       -0.1477
     17 N          64.3078   85.2639   15.1387 N.ar    1  UNL1       -0.1447
     18 C          63.8266   85.4977   16.5400 C.ar    1  UNL1        0.1446
     19 C          62.3486   85.2432   16.5711 C.ar    1  UNL1        0.1446
     20 N          61.9164   84.8521   15.1889 N.ar    1  UNL1       -0.1447
     21 C          62.8120   89.9243   13.1622 C.3     1  UNL1        0.0510
     22 C          64.1070   90.6797   13.2087 C.ar    1  UNL1        0.0086
     23 C          64.4807   91.5977   12.0828 C.ar    1  UNL1        0.0189
     24 C          65.7757   92.3531   12.1293 C.ar    1  UNL1        0.1027
     25 C          66.6972   92.1905   13.3016 C.ar    1  UNL1        0.0232
     26 C          66.3235   91.2724   14.4275 C.ar    1  UNL1        0.0309
     27 C          65.0285   90.5171   14.3810 C.ar    1  UNL1        0.1363
     28 F          64.6549   89.5990   15.5069 F       1  UNL1       -0.2045
     29 N          66.1493   93.2712   11.0034 N.ar    1  UNL1       -0.1478
     30 N          67.1243   92.9675    9.9046 N.ar    1  UNL1       -0.1447
     31 C          67.1911   94.1626    9.0007 C.ar    1  UNL1        0.1446
     32 C          66.2574   95.2050    9.5408 C.ar    1  UNL1        0.1446
     33 N          65.6136   94.6540   10.7785 N.ar    1  UNL1       -0.1447
@<TRIPOS>BOND
     1     9    10    1
     2    10    11   ar
     3    11    12   ar
     4    12    13   ar
     5    13     1    1
     6     1     2    2
     7     1     3   am
     8     3     4    1
     9     4     5    1
    10     5     6    1
    11     6     7    1
    12     7     8    1
    13     8    21    1
    14    21    22    1
    15    22    23   ar
    16    23    24   ar
    17    24    29    1
    18    29    30   ar
    19    30    31   ar
    20    31    32   ar
    21    32    33   ar
    22    24    25   ar
    23    25    26   ar
    24    26    27   ar
    25    27    28    1
    26    13    14   ar
    27    14    16    1
    28    16    17   ar
    29    17    18   ar
    30    18    19   ar
    31    19    20   ar
    32    14    15   ar
    33    15    10   ar
    34     8     3    1
    35    27    22   ar
    36    20    16   ar
    37    33    29   ar
@<TRIPOS>MOLECULE
*****
 33 37 0 0 0
SMALL
GASTEIGER

@<TRIPOS>ATOM
      1 C          63.5106   87.6044   13.3646 C.2     1  UNL1        0.2506
      2 O          63.6049   88.7044   12.3492 O.2     1  UNL1       -0.2699
      3 N          63.4037   87.9373   14.8232 N.am    1  UNL1       -0.2723
      4 C          63.3094   86.8373   15.8387 C.3     1  UNL1        0.1257
      5 C          63.2025   87.1702   17.2973 C.3     1  UNL1        0.1637
      6 O          63.1900   88.6032   17.7406 O.3     1  UNL1       -0.3502
      7 C          63.2844   89.7032   16.7252 C.3     1  UNL1        0.1622
      8 C          63.3912   89.3703   15.2665 C.3     1  UNL1        0.1097
      9 C          63.5607   81.8726   11.5915 C.3     1  UNL1        0.0311
     10 C          63.5481   83.3055   12.0347 C.ar    1  UNL1       -0.0203
     11 C          64.3829   83.7362   13.2042 C.ar    1  UNL1       -0.0040
     12 C          64.3704   85.1691   13.6475 C.ar    1  UNL1        0.0058
     13 C          63.5231   86.1714   12.9213 C.ar    1  UNL1        0.0729
     14 C          62.6883   85.7408   11.7518 C.ar    1  UNL1        0.1069
     15 C          62.7008   84.3079   11.3086 C.ar    1  UNL1        0.0168
     16 N          61.8410   86.7432   11.0256 N.ar    1  UNL1       -0.1477
     17 N          62.0916   87.2745    9.6454 N.ar    1  UNL1       -0.1447
     18 C          60.9998   88.2498    9.3188 C.ar    1  UNL1        0.1446
     19 C          60.0744   88.3213   10.4972 C.ar    1  UNL1        0.1446
     20 N          60.5943   87.3901   11.5520 N.ar    1  UNL1       -0.1447
     21 C          63.4856   90.4703   14.2511 C.3     1  UNL1        0.0510
     22 C          64.7169   91.3241   14.1825 C.ar    1  UNL1        0.0086
     23 C          65.3820   91.5765   12.8620 C.ar    1  UNL1        0.0189
     24 C          66.6134   92.4303   12.7934 C.ar    1  UNL1        0.1027
     25 C          67.1797   93.0317   14.0454 C.ar    1  UNL1        0.0232
     26 C          66.5147   92.7793   15.3659 C.ar    1  UNL1        0.0309
     27 C          65.2833   91.9255   15.4345 C.ar    1  UNL1        0.1363
     28 F          64.6182   91.6732   16.7552 F       1  UNL1       -0.2045
     29 N          67.2785   92.6826   11.4727 N.ar    1  UNL1       -0.1478
     30 N          68.4224   91.9009   10.8980 N.ar    1  UNL1       -0.1447
     31 C          68.7673   92.4961    9.5651 C.ar    1  UNL1        0.1446
     32 C          67.8365   93.6457    9.3160 C.ar    1  UNL1        0.1446
     33 N          66.9163   93.7610   10.4950 N.ar    1  UNL1       -0.1447
@<TRIPOS>BOND
     1     9    10    1
     2    10    11   ar
     3    11    12   ar
     4    12    13   ar
     5    13     1    1
     6     1     2    2
     7     1     3   am
     8     3     4    1
     9     4     5    1
    10     5     6    1
    11     6     7    1
    12     7     8    1
    13     8    21    1
    14    21    22    1
    15    22    23   ar
    16    23    24   ar
    17    24    29    1
    18    29    30   ar
    19    30    31   ar
    20    31    32   ar
    21    32    33   ar
    22    24    25   ar
    23    25    26   ar
    24    26    27   ar
    25    27    28    1
    26    13    14   ar
    27    14    16    1
    28    16    17   ar
    29    17    18   ar
    30    18    19   ar
    31    19    20   ar
    32    14    15   ar
    33    15    10   ar
    34     8     3    1
    35    27    22   ar
    36    20    16   ar
    37    33    29   ar
@<TRIPOS>MOLECULE
*****
 33 37 0 0 0
SMALL
GASTEIGER

@<TRIPOS>ATOM
      1 C          63.4570   87.4914   13.1464 C.2     1  UNL1        0.2506
      2 O          63.4554   88.1566   11.8020 O.2     1  UNL1       -0.2699
      3 N          63.3727   88.3206   14.3935 N.am    1  UNL1       -0.2723
      4 C          63.3744   87.6554   15.7380 C.3     1  UNL1        0.1257
      5 C          63.2901   88.4846   16.9851 C.3     1  UNL1        0.1637
      6 O          63.2042   89.9789   16.8878 O.3     1  UNL1       -0.3502
      7 C          63.2025   90.6441   15.5433 C.3     1  UNL1        0.1622
      8 C          63.2868   89.8149   14.2962 C.3     1  UNL1        0.1097
      9 C          63.8008   81.5139   13.5356 C.3     1  UNL1        0.0311
     10 C          63.7149   83.0083   13.4383 C.ar    1  UNL1       -0.0203
     11 C          64.4129   83.8672   14.4507 C.ar    1  UNL1       -0.0040
     12 C          64.3269   85.3615   14.3534 C.ar    1  UNL1        0.0058
     13 C          63.5430   85.9970   13.2437 C.ar    1  UNL1        0.0729
     14 C          62.8450   85.1381   12.2312 C.ar    1  UNL1        0.1069
     15 C          62.9309   83.6437   12.3286 C.ar    1  UNL1        0.0168
     16 N          62.0610   85.7736   11.1214 N.ar    1  UNL1       -0.1477
     17 N          62.3576   85.6604    9.6554 N.ar    1  UNL1       -0.1447
     18 C          61.3228   86.4506    8.9107 C.ar    1  UNL1        0.1446
     19 C          60.3865   87.0522    9.9165 C.ar    1  UNL1        0.1446
     20 N          60.8428   86.6337   11.2828 N.ar    1  UNL1       -0.1447
     21 C          63.2851   90.4801   12.9517 C.3     1  UNL1        0.0510
     22 C          64.4192   91.3798   12.5587 C.ar    1  UNL1        0.0086
     23 C          65.4826   91.7265   13.5582 C.ar    1  UNL1        0.0189
     24 C          66.6166   92.6262   13.1651 C.ar    1  UNL1        0.1027
     25 C          66.6873   93.1792   11.7726 C.ar    1  UNL1        0.0232
     26 C          65.6239   92.8326   10.7732 C.ar    1  UNL1        0.0309
     27 C          64.4898   91.9329   11.1662 C.ar    1  UNL1        0.1363
     28 F          63.4264   91.5862   10.1667 F       1  UNL1       -0.2045
     29 N          67.6801   92.9728   14.1647 N.ar    1  UNL1       -0.1478
     30 N          69.0946   92.4738   14.1559 N.ar    1  UNL1       -0.1447
     31 C          69.8044   93.0719   15.3342 C.ar    1  UNL1        0.1446
     32 C          68.8286   93.9406   16.0712 C.ar    1  UNL1        0.1446
     33 N          67.5156   93.8793   15.3484 N.ar    1  UNL1       -0.1447
@<TRIPOS>BOND
     1     9    10    1
     2    10    11   ar
     3    11    12   ar
     4    12    13   ar
     5    13     1    1
     6     1     2    2
     7     1     3   am
     8     3     4    1
     9     4     5    1
    10     5     6    1
    11     6     7    1
    12     7     8    1
    13     8    21    1
    14    21    22    1
    15    22    23   ar
    16    23    24   ar
    17    24    29    1
    18    29    30   ar
    19    30    31   ar
    20    31    32   ar
    21    32    33   ar
    22    24    25   ar
    23    25    26   ar
    24    26    27   ar
    25    27    28    1
    26    13    14   ar
    27    14    16    1
    28    16    17   ar
    29    17    18   ar
    30    18    19   ar
    31    19    20   ar
    32    14    15   ar
    33    15    10   ar
    34     8     3    1
    35    27    22   ar
    36    20    16   ar
    37    33    29   ar
@<TRIPOS>MOLECULE
*****
 33 37 0 0 0
SMALL
GASTEIGER

@<TRIPOS>ATOM
      1 C          62.6663   88.7274   11.6381 C.2     1  UNL1        0.2506
      2 O          62.5373   90.2213   11.5995 O.2     1  UNL1       -0.2699
      3 N          63.3543   88.0637   12.7940 N.am    1  UNL1       -0.2723
      4 C          63.4833   86.5697   12.8327 C.3     1  UNL1        0.1257
      5 C          64.1713   85.9059   13.9886 C.3     1  UNL1        0.1637
      6 O          64.7303   86.7361   15.1058 O.3     1  UNL1       -0.3502
      7 C          64.6013   88.2301   15.0672 C.3     1  UNL1        0.1622
      8 C          63.9133   88.8939   13.9113 C.3     1  UNL1        0.1097
      9 C          60.4301   85.4066    7.1691 C.3     1  UNL1        0.0311
     10 C          60.9892   86.2368    8.2864 C.ar    1  UNL1       -0.0203
     11 C          62.4379   86.1183    8.6564 C.ar    1  UNL1       -0.0040
     12 C          62.9970   86.9485    9.7737 C.ar    1  UNL1        0.0058
     13 C          62.1072   87.8972   10.5209 C.ar    1  UNL1        0.0729
     14 C          60.6585   88.0156   10.1508 C.ar    1  UNL1        0.1069
     15 C          60.0994   87.1854    9.0336 C.ar    1  UNL1        0.0168
     16 N          59.7687   88.9644   10.8980 N.ar    1  UNL1       -0.1477
     17 N          58.9649   88.6402   12.1224 N.ar    1  UNL1       -0.1447
     18 C          58.2259   89.8792   12.5331 C.ar    1  UNL1        0.1446
     19 C          58.5729   90.9691   11.5626 C.ar    1  UNL1        0.1446
     20 N          59.5264   90.4037   10.5521 N.ar    1  UNL1       -0.1447
     21 C          63.7843   90.3878   13.8726 C.3     1  UNL1        0.0510
     22 C          65.0140   91.2462   13.8411 C.ar    1  UNL1        0.0086
     23 C          65.6457   91.6036   12.5284 C.ar    1  UNL1        0.0189
     24 C          66.8754   92.4620   12.4968 C.ar    1  UNL1        0.1027
     25 C          67.4734   92.9630   13.7779 C.ar    1  UNL1        0.0232
     26 C          66.8418   92.6055   15.0906 C.ar    1  UNL1        0.0309
     27 C          65.6121   91.7471   15.1222 C.ar    1  UNL1        0.1363
     28 F          64.9804   91.3897   16.4350 F       1  UNL1       -0.2045
     29 N          67.5071   92.8194   11.1840 N.ar    1  UNL1       -0.1478
     30 N          67.3129   94.1031   10.4326 N.ar    1  UNL1       -0.1447
     31 C          68.1296   94.0330    9.1764 C.ar    1  UNL1        0.1446
     32 C          68.8285   92.7059    9.1514 C.ar    1  UNL1        0.1446
     33 N          68.4437   91.9559   10.3922 N.ar    1  UNL1       -0.1447
@<TRIPOS>BOND
     1     9    10    1
     2    10    11   ar
     3    11    12   ar
     4    12    13   ar
     5    13     1    1
     6     1     2    2
     7     1     3   am
     8     3     4    1
     9     4     5    1
    10     5     6    1
    11     6     7    1
    12     7     8    1
    13     8    21    1
    14    21    22    1
    15    22    23   ar
    16    23    24   ar
    17    24    29    1
    18    29    30   ar
    19    30    31   ar
    20    31    32   ar
    21    32    33   ar
    22    24    25   ar
    23    25    26   ar
    24    26    27   ar
    25    27    28    1
    26    13    14   ar
    27    14    16    1
    28    16    17   ar
    29    17    18   ar
    30    18    19   ar
    31    19    20   ar
    32    14    15   ar
    33    15    10   ar
    34     8     3    1
    35    27    22   ar
    36    20    16   ar
    37    33    29   ar
@<TRIPOS>MOLECULE
*****
 33 37 0 0 0
SMALL
GASTEIGER

@<TRIPOS>ATOM
      1 C          61.0742   86.6999   10.2177 C.2     1  UNL1        0.2506
      2 O          60.6952   86.8666   11.6594 O.2     1  UNL1       -0.2699
      3 N          62.0736   85.6540    9.8211 N.am    1  UNL1       -0.2723
      4 C          62.4527   85.4873    8.3794 C.3     1  UNL1        0.1257
      5 C          63.4520   84.4414    7.9828 C.3     1  UNL1        0.1637
      6 O          64.0724   83.5622    9.0279 O.3     1  UNL1       -0.3502
      7 C          63.6934   83.7290   10.4696 C.3     1  UNL1        0.1622
      8 C          62.6940   84.7749   10.8662 C.3     1  UNL1        0.1097
      9 C          58.5927   90.2165    6.0373 C.3     1  UNL1        0.0311
     10 C          59.2131   89.3373    7.0824 C.ar    1  UNL1       -0.0203
     11 C          58.9738   87.8568    7.0555 C.ar    1  UNL1       -0.0040
     12 C          59.5942   86.9777    8.1006 C.ar    1  UNL1        0.0058
     13 C          60.4538   87.5790    9.1726 C.ar    1  UNL1        0.0729
     14 C          60.6931   89.0596    9.1995 C.ar    1  UNL1        0.1069
     15 C          60.0728   89.9387    8.1544 C.ar    1  UNL1        0.0168
     16 N          61.5529   89.6610   10.2716 N.ar    1  UNL1       -0.1477
     17 N          61.1568   89.8759   11.7023 N.ar    1  UNL1       -0.1447
     18 C          62.3186   90.5008   12.4161 C.ar    1  UNL1        0.1446
     19 C          63.4328   90.6722   11.4265 C.ar    1  UNL1        0.1446
     20 N          62.9595   90.1531   10.1011 N.ar    1  UNL1       -0.1447
     21 C          62.3150   84.9416   12.3079 C.3     1  UNL1        0.0510
     22 C          63.3195   85.4640   13.2919 C.ar    1  UNL1        0.0086
     23 C          63.3266   86.9192   13.6554 C.ar    1  UNL1        0.0189
     24 C          64.3311   87.4416   14.6394 C.ar    1  UNL1        0.1027
     25 C          65.3284   86.5087   15.2599 C.ar    1  UNL1        0.0232
     26 C          65.3213   85.0534   14.8963 C.ar    1  UNL1        0.0309
     27 C          64.3168   84.5311   13.9124 C.ar    1  UNL1        0.1363
     28 F          64.3097   83.0758   13.5489 F       1  UNL1       -0.2045
     29 N          64.3382   88.8969   15.0029 N.ar    1  UNL1       -0.1478
     30 N          65.2378   89.9466   14.4210 N.ar    1  UNL1       -0.1447
     31 C          64.9026   91.2564   15.0705 C.ar    1  UNL1        0.1446
     32 C          63.7956   91.0162   16.0540 C.ar    1  UNL1        0.1446
     33 N          63.4468   89.5579   16.0121 N.ar    1  UNL1       -0.1447
@<TRIPOS>BOND
     1     9    10    1
     2    10    11   ar
     3    11    12   ar
     4    12    13   ar
     5    13     1    1
     6     1     2    2
     7     1     3   am
     8     3     4    1
     9     4     5    1
    10     5     6    1
    11     6     7    1
    12     7     8    1
    13     8    21    1
    14    21    22    1
    15    22    23   ar
    16    23    24   ar
    17    24    29    1
    18    29    30   ar
    19    30    31   ar
    20    31    32   ar
    21    32    33   ar
    22    24    25   ar
    23    25    26   ar
    24    26    27   ar
    25    27    28    1
    26    13    14   ar
    27    14    16    1
    28    16    17   ar
    29    17    18   ar
    30    18    19   ar
    31    19    20   ar
    32    14    15   ar
    33    15    10   ar
    34     8     3    1
    35    27    22   ar
    36    20    16   ar
    37    33    29   ar
@<TRIPOS>MOLECULE
*****
 33 37 0 0 0
SMALL
GASTEIGER

@<TRIPOS>ATOM
      1 C          64.0230   85.1619   14.2182 C.2     1  UNL1        0.2506
      2 O          65.0648   85.8632   13.3980 O.2     1  UNL1       -0.2699
      3 N          63.3891   85.8622   15.3833 N.am    1  UNL1       -0.2723
      4 C          62.3472   85.1609   16.2036 C.3     1  UNL1        0.1257
      5 C          61.7133   85.8613   17.3687 C.3     1  UNL1        0.1637
      6 O          62.1211   87.2630   17.7136 O.3     1  UNL1       -0.3502
      7 C          63.1629   87.9643   16.8934 C.3     1  UNL1        0.1622
      8 C          63.7969   87.2639   15.7282 C.3     1  UNL1        0.1097
      9 C          62.3917   79.5551   12.8387 C.3     1  UNL1        0.0311
     10 C          62.7996   80.9568   13.1836 C.ar    1  UNL1       -0.0203
     11 C          63.5805   81.2240   14.4360 C.ar    1  UNL1       -0.0040
     12 C          63.9884   82.6257   14.7809 C.ar    1  UNL1        0.0058
     13 C          63.6152   83.7602   13.8733 C.ar    1  UNL1        0.0729
     14 C          62.8342   83.4929   12.6209 C.ar    1  UNL1        0.1069
     15 C          62.4264   82.0912   12.2760 C.ar    1  UNL1        0.0168
     16 N          62.4610   84.6274   11.7133 N.ar    1  UNL1       -0.1477
     17 N          61.5938   85.7969   12.0745 N.ar    1  UNL1       -0.1447
     18 C          61.4863   86.6839   10.8696 C.ar    1  UNL1        0.1446
     19 C          62.2871   86.0626    9.7638 C.ar    1  UNL1        0.1446
     20 N          62.8895   84.7917   10.2852 N.ar    1  UNL1       -0.1447
     21 C          64.8387   87.9652   14.9080 C.3     1  UNL1        0.0510
     22 C          64.4577   89.1408   14.0577 C.ar    1  UNL1        0.0086
     23 C          63.3332   89.0207   13.0724 C.ar    1  UNL1        0.0189
     24 C          62.9522   90.1963   12.2221 C.ar    1  UNL1        0.1027
     25 C          63.6959   91.4919   12.3572 C.ar    1  UNL1        0.0232
     26 C          64.8204   91.6120   13.3425 C.ar    1  UNL1        0.0309
     27 C          65.2014   90.4364   14.1928 C.ar    1  UNL1        0.1363
     28 F          66.3260   90.5566   15.1781 F       1  UNL1       -0.2045
     29 N          61.8276   90.0761   11.2368 N.ar    1  UNL1       -0.1478
     30 N          60.3636   90.1323   11.5586 N.ar    1  UNL1       -0.1447
     31 C          59.6007   89.9697   10.2774 C.ar    1  UNL1        0.1446
     32 C          60.5933   89.8129    9.1637 C.ar    1  UNL1        0.1446
     33 N          61.9695   89.8787    9.7566 N.ar    1  UNL1       -0.1447
@<TRIPOS>BOND
     1     9    10    1
     2    10    11   ar
     3    11    12   ar
     4    12    13   ar
     5    13     1    1
     6     1     2    2
     7     1     3   am
     8     3     4    1
     9     4     5    1
    10     5     6    1
    11     6     7    1
    12     7     8    1
    13     8    21    1
    14    21    22    1
    15    22    23   ar
    16    23    24   ar
    17    24    29    1
    18    29    30   ar
    19    30    31   ar
    20    31    32   ar
    21    32    33   ar
    22    24    25   ar
    23    25    26   ar
    24    26    27   ar
    25    27    28    1
    26    13    14   ar
    27    14    16    1
    28    16    17   ar
    29    17    18   ar
    30    18    19   ar
    31    19    20   ar
    32    14    15   ar
    33    15    10   ar
    34     8     3    1
    35    27    22   ar
    36    20    16   ar
    37    33    29   ar
@<TRIPOS>MOLECULE
*****
 33 37 0 0 0
SMALL
GASTEIGER

@<TRIPOS>ATOM
      1 C          62.8084   88.2843   11.1435 C.2     1  UNL1        0.2506
      2 O          63.0711   89.7509   10.9703 O.2     1  UNL1       -0.2699
      3 N          63.2808   87.5786   12.3799 N.am    1  UNL1       -0.2723
      4 C          63.0181   86.1120   12.5531 C.3     1  UNL1        0.1257
      5 C          63.4906   85.4063   13.7896 C.3     1  UNL1        0.1637
      6 O          64.2257   86.1672   14.8528 O.3     1  UNL1       -0.3502
      7 C          64.4885   87.6338   14.6796 C.3     1  UNL1        0.1622
      8 C          64.0160   88.3396   13.4432 C.3     1  UNL1        0.1097
      9 C          59.8677   85.2406    6.8905 C.3     1  UNL1        0.0311
     10 C          60.6028   86.0015    7.9538 C.ar    1  UNL1       -0.0203
     11 C          62.0689   85.7664    8.1664 C.ar    1  UNL1       -0.0040
     12 C          62.8041   86.5273    9.2296 C.ar    1  UNL1        0.0058
     13 C          62.0732   87.5234   10.0803 C.ar    1  UNL1        0.0729
     14 C          60.6071   87.7585    9.8676 C.ar    1  UNL1        0.1069
     15 C          59.8719   86.9976    8.8044 C.ar    1  UNL1        0.0168
     16 N          59.8761   88.7546   10.7182 N.ar    1  UNL1       -0.1477
     17 N          59.1774   88.4636   12.0133 N.ar    1  UNL1       -0.1447
     18 C          58.5850   89.7457   12.5186 C.ar    1  UNL1        0.1446
     19 C          58.9175   90.8290   11.5358 C.ar    1  UNL1        0.1446
     20 N          59.7155   90.2165   10.4231 N.ar    1  UNL1       -0.1447
     21 C          64.2787   89.8062   13.2700 C.3     1  UNL1        0.0510
     22 C          64.6680   90.6431   14.4523 C.ar    1  UNL1        0.0086
     23 C          65.9932   91.3456   14.4703 C.ar    1  UNL1        0.0189
     24 C          66.3825   92.1825   15.6526 C.ar    1  UNL1        0.1027
     25 C          65.4466   92.3170   16.8170 C.ar    1  UNL1        0.0232
     26 C          64.1214   91.6146   16.7991 C.ar    1  UNL1        0.0309
     27 C          63.7321   90.7776   15.6168 C.ar    1  UNL1        0.1363
     28 F          62.4068   90.0752   15.5989 F       1  UNL1       -0.2045
     29 N          67.7078   92.8850   15.6705 N.ar    1  UNL1       -0.1478
     30 N          67.9893   94.2208   16.2920 N.ar    1  UNL1       -0.1447
     31 C          69.4397   94.5364   16.0757 C.ar    1  UNL1        0.1446
     32 C          70.0546   93.3955   15.3204 C.ar    1  UNL1        0.1446
     33 N          68.9842   92.3749   15.0700 N.ar    1  UNL1       -0.1447
@<TRIPOS>BOND
     1     9    10    1
     2    10    11   ar
     3    11    12   ar
     4    12    13   ar
     5    13     1    1
     6     1     2    2
     7     1     3   am
     8     3     4    1
     9     4     5    1
    10     5     6    1
    11     6     7    1
    12     7     8    1
    13     8    21    1
    14    21    22    1
    15    22    23   ar
    16    23    24   ar
    17    24    29    1
    18    29    30   ar
    19    30    31   ar
    20    31    32   ar
    21    32    33   ar
    22    24    25   ar
    23    25    26   ar
    24    26    27   ar
    25    27    28    1
    26    13    14   ar
    27    14    16    1
    28    16    17   ar
    29    17    18   ar
    30    18    19   ar
    31    19    20   ar
    32    14    15   ar
    33    15    10   ar
    34     8     3    1
    35    27    22   ar
    36    20    16   ar
    37    33    29   ar
