@<TRIPOS>MOLECULE
*****
 28 31 0 0 0
SMALL
GASTEIGER

@<TRIPOS>ATOM
      1 C          65.2688   92.3221   12.6684 C.ar    1  UNL1        0.1248
      2 N          65.5699   91.5824   13.9381 N.ar    1  UNL1       -0.2305
      3 C          64.8417   90.2717   13.8948 C.ar    1  UNL1        0.1014
      4 C          64.7656   89.1332   14.8684 C.ar    1  UNL1        0.0575
      5 C          63.9384   87.9243   14.5455 C.ar    1  UNL1        0.1400
      6 C          63.1873   87.8540   13.2490 C.ar    1  UNL1        0.0385
      7 C          63.2634   88.9925   12.2754 C.ar    1  UNL1        0.0219
      8 C          64.0906   90.2014   12.5983 C.ar    1  UNL1        0.0789
      9 N          64.3546   91.4686   11.8404 N.ar    1  UNL1       -0.3126
     10 C          63.8014   91.8205   10.4912 C.3     1  UNL1        0.1316
     11 C          65.7904   93.6774   12.2928 C.3     1  UNL1        0.0902
     12 C          67.3226   96.6675    8.3289 C.3     1  UNL1        0.0310
     13 C          67.3415   95.3496    9.0449 C.ar    1  UNL1       -0.0222
     14 C          68.1453   94.2087    8.4951 C.ar    1  UNL1       -0.0043
     15 C          68.1641   92.8908    9.2111 C.ar    1  UNL1       -0.0006
     16 C          67.3792   92.7137   10.4770 C.ar    1  UNL1       -0.0039
     17 C          66.5753   93.8546   11.0269 C.ar    1  UNL1       -0.0150
     18 C          66.5565   95.1725   10.3109 C.ar    1  UNL1       -0.0081
     19 O          63.8622   86.7857   15.5191 O.3     1  UNL1       -0.4791
     20 C          63.7080   85.3801   15.0187 C.3     1  UNL1        0.1659
     21 C          62.5727   84.5302   15.5075 C.3     1  UNL1        0.0439
     22 C          62.4185   83.1246   15.0070 C.3     1  UNL1        0.0092
     23 C          63.3997   82.5688   14.0178 C.3     1  UNL1        0.0368
     24 C          64.5349   83.4186   13.5291 C.3     1  UNL1        0.0092
     25 C          64.6891   84.8243   14.0295 C.3     1  UNL1        0.0439
     26 C          63.2455   81.1632   13.5174 C.2     1  UNL1        0.0500
     27 O          62.8356   80.9137   12.0962 O.co2   1  UNL1       -0.5492
     28 O          63.5012   80.0069   14.4382 O.co2   1  UNL1       -0.5492
@<TRIPOS>UNITY_ATOM_ATTR
27 1
charge -1
@<TRIPOS>BOND
     1    12    13    1
     2    13    14   ar
     3    14    15   ar
     4    15    16   ar
     5    16    17   ar
     6    17    11    1
     7    11     1    1
     8     1     2   ar
     9     2     3   ar
    10     3     4   ar
    11     4     5   ar
    12     5    19    1
    13    20    19    1
    14    20    21    1
    15    21    22    1
    16    22    23    1
    17    23    26    1
    18    26    27   ar
    19    26    28   ar
    20    23    24    1
    21    24    25    1
    22     5     6   ar
    23     6     7   ar
    24     7     8   ar
    25     8     9   ar
    26     9    10    1
    27    17    18   ar
    28    18    13   ar
    29     9     1   ar
    30     8     3   ar
    31    25    20    1
@<TRIPOS>MOLECULE
*****
 28 31 0 0 0
SMALL
GASTEIGER

@<TRIPOS>ATOM
      1 C          62.4037   86.2995   11.5050 C.ar    1  UNL1        0.1248
      2 N          61.4706   85.9139   10.3956 N.ar    1  UNL1       -0.2305
      3 C          60.9840   87.1726    9.7406 C.ar    1  UNL1        0.1014
      4 C          60.0468   87.4096    8.5937 C.ar    1  UNL1        0.0575
      5 C          59.7420   88.8100    8.1514 C.ar    1  UNL1        0.1400
      6 C          60.3743   89.9735    8.8560 C.ar    1  UNL1        0.0385
      7 C          61.3115   89.7365   10.0029 C.ar    1  UNL1        0.0219
      8 C          61.6163   88.3361   10.4452 C.ar    1  UNL1        0.0789
      9 N          62.4937   87.7965   11.5357 N.ar    1  UNL1       -0.3126
     10 C          63.3166   88.6109   12.4893 C.3     1  UNL1        0.1316
     11 C          63.1208   85.3541   12.4226 C.3     1  UNL1        0.0902
     12 C          61.7262   80.5333   13.7701 C.3     1  UNL1        0.0310
     13 C          62.4072   81.4701   12.8168 C.ar    1  UNL1       -0.0222
     14 C          63.0720   80.9332   11.5840 C.ar    1  UNL1       -0.0043
     15 C          63.7530   81.8699   10.6307 C.ar    1  UNL1       -0.0006
     16 C          63.7693   83.3435   10.9102 C.ar    1  UNL1       -0.0039
     17 C          63.1045   83.8805   12.1431 C.ar    1  UNL1       -0.0150
     18 C          62.4235   82.9438   13.0964 C.ar    1  UNL1       -0.0081
     19 O          58.8048   89.0471    7.0044 O.3     1  UNL1       -0.4791
     20 C          59.1291   90.0873    5.9735 C.3     1  UNL1        0.1659
     21 C          60.5461   90.2771    5.5195 C.3     1  UNL1        0.0439
     22 C          60.8704   91.3173    4.4886 C.3     1  UNL1        0.0092
     23 C          59.7777   92.1679    3.9118 C.3     1  UNL1        0.0368
     24 C          58.3608   91.9781    4.3659 C.3     1  UNL1        0.0092
     25 C          58.0365   90.9379    5.3967 C.3     1  UNL1        0.0439
     26 C          60.1020   93.2082    2.8810 C.2     1  UNL1        0.0500
     27 O          60.5129   92.7926    1.4996 O.co2   1  UNL1       -0.5492
     28 O          60.0154   94.6641    3.2317 O.co2   1  UNL1       -0.5492
@<TRIPOS>UNITY_ATOM_ATTR
27 1
charge -1
@<TRIPOS>BOND
     1    12    13    1
     2    13    14   ar
     3    14    15   ar
     4    15    16   ar
     5    16    17   ar
     6    17    11    1
     7    11     1    1
     8     1     2   ar
     9     2     3   ar
    10     3     4   ar
    11     4     5   ar
    12     5    19    1
    13    20    19    1
    14    20    21    1
    15    21    22    1
    16    22    23    1
    17    23    26    1
    18    26    27   ar
    19    26    28   ar
    20    23    24    1
    21    24    25    1
    22     5     6   ar
    23     6     7   ar
    24     7     8   ar
    25     8     9   ar
    26     9    10    1
    27    17    18   ar
    28    18    13   ar
    29     9     1   ar
    30     8     3   ar
    31    25    20    1
@<TRIPOS>MOLECULE
*****
 28 31 0 0 0
SMALL
GASTEIGER

@<TRIPOS>ATOM
      1 C          62.4111   85.5587   10.7002 C.ar    1  UNL1        0.1248
      2 N          62.9995   86.3417   11.8363 N.ar    1  UNL1       -0.2305
      3 C          62.7818   87.7992   11.5566 C.ar    1  UNL1        0.1014
      4 C          63.1484   89.0343   12.3247 C.ar    1  UNL1        0.0575
      5 C          62.7920   90.3872   11.7839 C.ar    1  UNL1        0.1400
      6 C          62.0690   90.5050   10.4749 C.ar    1  UNL1        0.0385
      7 C          61.7023   89.2699    9.7068 C.ar    1  UNL1        0.0219
      8 C          62.0587   87.9170   10.2477 C.ar    1  UNL1        0.0789
      9 N          61.8297   86.5323    9.7184 N.ar    1  UNL1       -0.3126
     10 C          61.1402   86.1826    8.4330 C.3     1  UNL1        0.1316
     11 C          62.4052   84.0644   10.5690 C.3     1  UNL1        0.0902
     12 C          62.8179   83.5862   15.7267 C.3     1  UNL1        0.0310
     13 C          62.8048   82.9651   14.3614 C.ar    1  UNL1       -0.0222
     14 C          62.9850   81.4837   14.2096 C.ar    1  UNL1       -0.0043
     15 C          62.9719   80.8626   12.8443 C.ar    1  UNL1       -0.0006
     16 C          62.7787   81.7228   11.6308 C.ar    1  UNL1       -0.0039
     17 C          62.5985   83.2042   11.7825 C.ar    1  UNL1       -0.0150
     18 C          62.6116   83.8254   13.1478 C.ar    1  UNL1       -0.0081
     19 O          63.1586   91.6225   12.5520 O.3     1  UNL1       -0.4791
     20 C          64.5443   91.7781   13.1049 C.3     1  UNL1        0.1659
     21 C          64.8635   91.2745   14.4814 C.3     1  UNL1        0.0439
     22 C          66.2491   91.4302   15.0343 C.3     1  UNL1        0.0092
     23 C          67.3156   92.0894   14.2108 C.3     1  UNL1        0.0368
     24 C          66.9964   92.5929   12.8344 C.3     1  UNL1        0.0092
     25 C          65.6107   92.4373   12.2814 C.3     1  UNL1        0.0439
     26 C          68.7013   92.2450   14.7637 C.2     1  UNL1        0.0500
     27 O          69.8826   92.2400   13.8394 O.co2   1  UNL1       -0.5492
     28 O          68.9056   92.4056   16.2411 O.co2   1  UNL1       -0.5492
@<TRIPOS>UNITY_ATOM_ATTR
27 1
charge -1
@<TRIPOS>BOND
     1    12    13    1
     2    13    14   ar
     3    14    15   ar
     4    15    16   ar
     5    16    17   ar
     6    17    11    1
     7    11     1    1
     8     1     2   ar
     9     2     3   ar
    10     3     4   ar
    11     4     5   ar
    12     5    19    1
    13    20    19    1
    14    20    21    1
    15    21    22    1
    16    22    23    1
    17    23    26    1
    18    26    27   ar
    19    26    28   ar
    20    23    24    1
    21    24    25    1
    22     5     6   ar
    23     6     7   ar
    24     7     8   ar
    25     8     9   ar
    26     9    10    1
    27    17    18   ar
    28    18    13   ar
    29     9     1   ar
    30     8     3   ar
    31    25    20    1
@<TRIPOS>MOLECULE
*****
 28 31 0 0 0
SMALL
GASTEIGER

@<TRIPOS>ATOM
      1 C          65.1651   92.2720   12.6886 C.ar    1  UNL1        0.1248
      2 N          64.2437   91.6209   11.7001 N.ar    1  UNL1       -0.2305
      3 C          63.9104   90.2502   12.2101 C.ar    1  UNL1        0.1014
      4 C          63.0479   89.1553   11.6558 C.ar    1  UNL1        0.0575
      5 C          62.9009   87.8643   12.4053 C.ar    1  UNL1        0.1400
      6 C          63.6163   87.6682   13.7090 C.ar    1  UNL1        0.0385
      7 C          64.4788   88.7631   14.2633 C.ar    1  UNL1        0.0219
      8 C          64.6259   90.0541   13.5138 C.ar    1  UNL1        0.0789
      9 N          65.4013   91.3036   13.8095 N.ar    1  UNL1       -0.3126
     10 C          66.2618   91.5428   15.0146 C.3     1  UNL1        0.1316
     11 C          65.7479   93.6495   12.5759 C.3     1  UNL1        0.0902
     12 C          68.7411   92.4295    8.5074 C.3     1  UNL1        0.0310
     13 C          67.9691   93.4475    9.2932 C.ar    1  UNL1       -0.0222
     14 C          67.9215   94.8736    8.8307 C.ar    1  UNL1       -0.0043
     15 C          67.1495   95.8916    9.6165 C.ar    1  UNL1       -0.0006
     16 C          66.4250   95.4836   10.8649 C.ar    1  UNL1       -0.0039
     17 C          66.4725   94.0575   11.3275 C.ar    1  UNL1       -0.0150
     18 C          67.2445   93.0395   10.5417 C.ar    1  UNL1       -0.0081
     19 O          62.0384   86.7693   11.8510 O.3     1  UNL1       -0.4791
     20 C          62.3409   85.3373   12.1796 C.3     1  UNL1        0.1659
     21 C          62.2575   84.8598   13.5991 C.3     1  UNL1        0.0439
     22 C          62.5599   83.4278   13.9277 C.3     1  UNL1        0.0092
     23 C          62.9458   82.4734   12.8366 C.3     1  UNL1        0.0368
     24 C          63.0292   82.9510   11.4172 C.3     1  UNL1        0.0092
     25 C          62.7267   84.3829   11.0886 C.3     1  UNL1        0.0439
     26 C          63.2483   81.0414   13.1652 C.2     1  UNL1        0.0500
     27 O          62.7165   79.9433   12.2928 O.co2   1  UNL1       -0.5492
     28 O          64.0827   80.7076   14.3663 O.co2   1  UNL1       -0.5492
@<TRIPOS>UNITY_ATOM_ATTR
27 1
charge -1
@<TRIPOS>BOND
     1    12    13    1
     2    13    14   ar
     3    14    15   ar
     4    15    16   ar
     5    16    17   ar
     6    17    11    1
     7    11     1    1
     8     1     2   ar
     9     2     3   ar
    10     3     4   ar
    11     4     5   ar
    12     5    19    1
    13    20    19    1
    14    20    21    1
    15    21    22    1
    16    22    23    1
    17    23    26    1
    18    26    27   ar
    19    26    28   ar
    20    23    24    1
    21    24    25    1
    22     5     6   ar
    23     6     7   ar
    24     7     8   ar
    25     8     9   ar
    26     9    10    1
    27    17    18   ar
    28    18    13   ar
    29     9     1   ar
    30     8     3   ar
    31    25    20    1
@<TRIPOS>MOLECULE
*****
 28 31 0 0 0
SMALL
GASTEIGER

@<TRIPOS>ATOM
      1 C          65.2640   92.5525   12.6951 C.ar    1  UNL1        0.1248
      2 N          64.4783   91.6155   11.8263 N.ar    1  UNL1       -0.2305
      3 C          64.2699   90.3409   12.5891 C.ar    1  UNL1        0.1014
      4 C          63.5669   89.0637   12.2364 C.ar    1  UNL1        0.0575
      5 C          63.5207   87.9356   13.2239 C.ar    1  UNL1        0.1400
      6 C          64.1776   88.0848   14.5642 C.ar    1  UNL1        0.0385
      7 C          64.8806   89.3620   14.9169 C.ar    1  UNL1        0.0219
      8 C          64.9268   90.4900   13.9293 C.ar    1  UNL1        0.0789
      9 N          65.5411   91.8569   13.9948 N.ar    1  UNL1       -0.3126
     10 C          66.2995   92.4279   15.1563 C.3     1  UNL1        0.1316
     11 C          65.6965   93.9412   12.3286 C.3     1  UNL1        0.0902
     12 C          68.8275   92.1913    8.5689 C.3     1  UNL1        0.0310
     13 C          68.0282   93.3032    9.1811 C.ar    1  UNL1       -0.0222
     14 C          67.9950   94.6519    8.5257 C.ar    1  UNL1       -0.0043
     15 C          67.1956   95.7638    9.1379 C.ar    1  UNL1       -0.0006
     16 C          66.4295   95.5269   10.4055 C.ar    1  UNL1       -0.0039
     17 C          66.4627   94.1781   11.0610 C.ar    1  UNL1       -0.0150
     18 C          67.2620   93.0662   10.4488 C.ar    1  UNL1       -0.0081
     19 O          62.8177   86.6583   12.8712 O.3     1  UNL1       -0.4791
     20 C          62.0736   86.5454   11.5737 C.3     1  UNL1        0.1659
     21 C          62.5271   85.5661   10.5319 C.3     1  UNL1        0.0439
     22 C          61.7830   85.4531    9.2343 C.3     1  UNL1        0.0092
     23 C          60.5854   86.3195    8.9787 C.3     1  UNL1        0.0368
     24 C          60.1320   87.2987   10.0205 C.3     1  UNL1        0.0092
     25 C          60.8761   87.4116   11.3180 C.3     1  UNL1        0.0439
     26 C          59.8413   86.2065    7.6811 C.2     1  UNL1        0.0500
     27 O          58.6670   87.0994    7.4098 O.co2   1  UNL1       -0.5492
     28 O          60.2716   85.2006    6.6549 O.co2   1  UNL1       -0.5492
@<TRIPOS>UNITY_ATOM_ATTR
27 1
charge -1
@<TRIPOS>BOND
     1    12    13    1
     2    13    14   ar
     3    14    15   ar
     4    15    16   ar
     5    16    17   ar
     6    17    11    1
     7    11     1    1
     8     1     2   ar
     9     2     3   ar
    10     3     4   ar
    11     4     5   ar
    12     5    19    1
    13    20    19    1
    14    20    21    1
    15    21    22    1
    16    22    23    1
    17    23    26    1
    18    26    27   ar
    19    26    28   ar
    20    23    24    1
    21    24    25    1
    22     5     6   ar
    23     6     7   ar
    24     7     8   ar
    25     8     9   ar
    26     9    10    1
    27    17    18   ar
    28    18    13   ar
    29     9     1   ar
    30     8     3   ar
    31    25    20    1
@<TRIPOS>MOLECULE
*****
 28 31 0 0 0
SMALL
GASTEIGER

@<TRIPOS>ATOM
      1 C          65.0696   92.2731   12.1717 C.ar    1  UNL1        0.1248
      2 N          63.9996   91.7467   11.2617 N.ar    1  UNL1       -0.2305
      3 C          63.5542   90.4158   11.7912 C.ar    1  UNL1        0.1014
      4 C          62.5276   89.4353   11.3066 C.ar    1  UNL1        0.0575
      5 C          62.2957   88.1588   12.0593 C.ar    1  UNL1        0.1400
      6 C          63.0904   87.8627   13.2965 C.ar    1  UNL1        0.0385
      7 C          64.1169   88.8431   13.7811 C.ar    1  UNL1        0.0219
      8 C          64.3488   90.1197   13.0285 C.ar    1  UNL1        0.0789
      9 N          65.2854   91.2675   13.2636 N.ar    1  UNL1       -0.3126
     10 C          66.2656   91.3886   14.3925 C.3     1  UNL1        0.1316
     11 C          65.7961   93.5762   12.0169 C.3     1  UNL1        0.0902
     12 C          67.2931   96.8559    8.2749 C.3     1  UNL1        0.0310
     13 C          67.3316   95.4925    8.8992 C.ar    1  UNL1       -0.0222
     14 C          68.1570   94.4057    8.2768 C.ar    1  UNL1       -0.0043
     15 C          68.1955   93.0423    8.9012 C.ar    1  UNL1       -0.0006
     16 C          67.4085   92.7658   10.1478 C.ar    1  UNL1       -0.0039
     17 C          66.5831   93.8527   10.7703 C.ar    1  UNL1       -0.0150
     18 C          66.5446   95.2161   10.1459 C.ar    1  UNL1       -0.0081
     19 O          61.2692   87.1782   11.5747 O.3     1  UNL1       -0.4791
     20 C          61.4251   86.5323   10.2299 C.3     1  UNL1        0.1659
     21 C          60.4040   86.7754    9.1582 C.3     1  UNL1        0.0439
     22 C          60.5599   86.1295    7.8134 C.3     1  UNL1        0.0092
     23 C          61.7369   85.2405    7.5403 C.3     1  UNL1        0.0368
     24 C          62.7578   84.9974    8.6119 C.3     1  UNL1        0.0092
     25 C          62.6019   85.6433    9.9567 C.3     1  UNL1        0.0439
     26 C          61.8928   84.5945    6.1955 C.2     1  UNL1        0.0500
     27 O          63.1796   84.7393    5.4386 O.co2   1  UNL1       -0.5492
     28 O          60.7617   83.8038    5.6076 O.co2   1  UNL1       -0.5492
@<TRIPOS>UNITY_ATOM_ATTR
27 1
charge -1
@<TRIPOS>BOND
     1    12    13    1
     2    13    14   ar
     3    14    15   ar
     4    15    16   ar
     5    16    17   ar
     6    17    11    1
     7    11     1    1
     8     1     2   ar
     9     2     3   ar
    10     3     4   ar
    11     4     5   ar
    12     5    19    1
    13    20    19    1
    14    20    21    1
    15    21    22    1
    16    22    23    1
    17    23    26    1
    18    26    27   ar
    19    26    28   ar
    20    23    24    1
    21    24    25    1
    22     5     6   ar
    23     6     7   ar
    24     7     8   ar
    25     8     9   ar
    26     9    10    1
    27    17    18   ar
    28    18    13   ar
    29     9     1   ar
    30     8     3   ar
    31    25    20    1
@<TRIPOS>MOLECULE
*****
 28 31 0 0 0
SMALL
GASTEIGER

@<TRIPOS>ATOM
      1 C          62.4138   89.6285   12.1289 C.ar    1  UNL1        0.1248
      2 N          61.5432   90.4628   11.2367 N.ar    1  UNL1       -0.2305
      3 C          60.9770   89.5687   10.1737 C.ar    1  UNL1        0.1014
      4 C          60.0546   89.8383    9.0220 C.ar    1  UNL1        0.0575
      5 C          59.6528   88.7209    8.1056 C.ar    1  UNL1        0.1400
      6 C          60.1734   87.3339    8.3408 C.ar    1  UNL1        0.0385
      7 C          61.0958   87.0644    9.4925 C.ar    1  UNL1        0.0219
      8 C          61.4976   88.1817   10.4090 C.ar    1  UNL1        0.0789
      9 N          62.3856   88.2187   11.6173 N.ar    1  UNL1       -0.3126
     10 C          63.1169   87.0509   12.2100 C.3     1  UNL1        0.1316
     11 C          63.1783   90.1180   13.3230 C.3     1  UNL1        0.0902
     12 C          67.7643   91.8118   15.0836 C.3     1  UNL1        0.0310
     13 C          66.7127   91.7854   14.0143 C.ar    1  UNL1       -0.0222
     14 C          66.9025   92.5795   12.7560 C.ar    1  UNL1       -0.0043
     15 C          65.8509   92.5530   11.6867 C.ar    1  UNL1       -0.0006
     16 C          64.6095   91.7325   11.8757 C.ar    1  UNL1       -0.0039
     17 C          64.4197   90.9384   13.1340 C.ar    1  UNL1       -0.0150
     18 C          65.4713   90.9649   14.2034 C.ar    1  UNL1       -0.0081
     19 O          58.7304   88.9904    6.9538 O.3     1  UNL1       -0.4791
     20 C          59.0757   90.0485    5.9481 C.3     1  UNL1        0.1659
     21 C          57.9941   90.9050    5.3593 C.3     1  UNL1        0.0439
     22 C          58.3394   91.9631    4.3536 C.3     1  UNL1        0.0092
     23 C          59.7662   92.1645    3.9368 C.3     1  UNL1        0.0368
     24 C          60.8477   91.3079    4.5256 C.3     1  UNL1        0.0092
     25 C          60.5024   90.2499    5.5312 C.3     1  UNL1        0.0439
     26 C          60.1115   93.2225    2.9311 C.2     1  UNL1        0.0500
     27 O          60.5504   92.8310    1.5512 O.co2   1  UNL1       -0.5492
     28 O          60.0179   94.6721    3.3054 O.co2   1  UNL1       -0.5492
@<TRIPOS>UNITY_ATOM_ATTR
27 1
charge -1
@<TRIPOS>BOND
     1    12    13    1
     2    13    14   ar
     3    14    15   ar
     4    15    16   ar
     5    16    17   ar
     6    17    11    1
     7    11     1    1
     8     1     2   ar
     9     2     3   ar
    10     3     4   ar
    11     4     5   ar
    12     5    19    1
    13    20    19    1
    14    20    21    1
    15    21    22    1
    16    22    23    1
    17    23    26    1
    18    26    27   ar
    19    26    28   ar
    20    23    24    1
    21    24    25    1
    22     5     6   ar
    23     6     7   ar
    24     7     8   ar
    25     8     9   ar
    26     9    10    1
    27    17    18   ar
    28    18    13   ar
    29     9     1   ar
    30     8     3   ar
    31    25    20    1
@<TRIPOS>MOLECULE
*****
 28 31 0 0 0
SMALL
GASTEIGER

@<TRIPOS>ATOM
      1 C          62.4171   88.4333   11.6691 C.ar    1  UNL1        0.1248
      2 N          61.6984   89.5322   10.9438 N.ar    1  UNL1       -0.2305
      3 C          60.9200   88.9144    9.8203 C.ar    1  UNL1        0.1014
      4 C          60.0256   89.5089    8.7731 C.ar    1  UNL1        0.0575
      5 C          59.3688   88.6226    7.7567 C.ar    1  UNL1        0.1400
      6 C          59.6063   87.1418    7.7876 C.ar    1  UNL1        0.0385
      7 C          60.5007   86.5474    8.8347 C.ar    1  UNL1        0.0219
      8 C          61.1576   87.4337    9.8511 C.ar    1  UNL1        0.0789
      9 N          62.0828   87.1363   10.9937 N.ar    1  UNL1       -0.3126
     10 C          62.5855   85.7801   11.3912 C.3     1  UNL1        0.1316
     11 C          63.3127   88.6018   12.8605 C.3     1  UNL1        0.0902
     12 C          65.0791   93.0910   10.9298 C.3     1  UNL1        0.0310
     13 C          65.0096   92.0969   12.0509 C.ar    1  UNL1       -0.0222
     14 C          65.7538   92.3532   13.3278 C.ar    1  UNL1       -0.0043
     15 C          65.6843   91.3591   14.4489 C.ar    1  UNL1       -0.0006
     16 C          64.8706   90.1086   14.2932 C.ar    1  UNL1       -0.0039
     17 C          64.1264   89.8522   13.0162 C.ar    1  UNL1       -0.0150
     18 C          64.1959   90.8464   11.8951 C.ar    1  UNL1       -0.0081
     19 O          58.4743   89.2170    6.7095 O.3     1  UNL1       -0.4791
     20 C          59.0188   90.2275    5.7438 C.3     1  UNL1        0.1659
     21 C          60.4891   90.2673    5.4495 C.3     1  UNL1        0.0439
     22 C          61.0336   91.2777    4.4838 C.3     1  UNL1        0.0092
     23 C          60.1077   92.2484    3.8124 C.3     1  UNL1        0.0368
     24 C          58.6374   92.2085    4.1068 C.3     1  UNL1        0.0092
     25 C          58.0929   91.1981    5.0725 C.3     1  UNL1        0.0439
     26 C          60.6521   93.2588    2.8467 C.2     1  UNL1        0.0500
     27 O          59.8137   94.4337    2.4384 O.co2   1  UNL1       -0.5492
     28 O          62.0350   93.0944    2.2893 O.co2   1  UNL1       -0.5492
@<TRIPOS>UNITY_ATOM_ATTR
27 1
charge -1
@<TRIPOS>BOND
     1    12    13    1
     2    13    14   ar
     3    14    15   ar
     4    15    16   ar
     5    16    17   ar
     6    17    11    1
     7    11     1    1
     8     1     2   ar
     9     2     3   ar
    10     3     4   ar
    11     4     5   ar
    12     5    19    1
    13    20    19    1
    14    20    21    1
    15    21    22    1
    16    22    23    1
    17    23    26    1
    18    26    27   ar
    19    26    28   ar
    20    23    24    1
    21    24    25    1
    22     5     6   ar
    23     6     7   ar
    24     7     8   ar
    25     8     9   ar
    26     9    10    1
    27    17    18   ar
    28    18    13   ar
    29     9     1   ar
    30     8     3   ar
    31    25    20    1
@<TRIPOS>MOLECULE
*****
 28 31 0 0 0
SMALL
GASTEIGER

@<TRIPOS>ATOM
      1 C          62.8726   89.0298   11.6419 C.ar    1  UNL1        0.1248
      2 N          62.1454   90.0183   10.7795 N.ar    1  UNL1       -0.2305
      3 C          61.2329   89.2540    9.8666 C.ar    1  UNL1        0.1014
      4 C          60.2744   89.6996    8.8023 C.ar    1  UNL1        0.0575
      5 C          59.4793   88.6843    8.0364 C.ar    1  UNL1        0.1400
      6 C          59.6427   87.2233    8.3346 C.ar    1  UNL1        0.0385
      7 C          60.6011   86.7777    9.3989 C.ar    1  UNL1        0.0219
      8 C          61.3963   87.7931   10.1649 C.ar    1  UNL1        0.0789
      9 N          62.4097   87.6545   11.2621 N.ar    1  UNL1       -0.3126
     10 C          62.8779   86.3667   11.8723 C.3     1  UNL1        0.1316
     11 C          63.8851   89.3588   12.6987 C.3     1  UNL1        0.0902
     12 C          63.9739   85.5967   16.2819 C.3     1  UNL1        0.0310
     13 C          63.7127   87.0246   15.9037 C.ar    1  UNL1       -0.0222
     14 C          63.2348   87.9992   16.9388 C.ar    1  UNL1       -0.0043
     15 C          62.9737   89.4271   16.5606 C.ar    1  UNL1       -0.0006
     16 C          63.1904   89.8803   15.1473 C.ar    1  UNL1       -0.0039
     17 C          63.6684   88.9056   14.1120 C.ar    1  UNL1       -0.0150
     18 C          63.9295   87.4777   14.4902 C.ar    1  UNL1       -0.0081
     19 O          58.5208   89.1298    6.9720 O.3     1  UNL1       -0.4791
     20 C          58.9535   90.1350    5.9461 C.3     1  UNL1        0.1659
     21 C          57.9346   91.0070    5.2741 C.3     1  UNL1        0.0439
     22 C          58.3673   92.0121    4.2482 C.3     1  UNL1        0.0092
     23 C          59.8189   92.1453    3.8943 C.3     1  UNL1        0.0368
     24 C          60.8377   91.2733    4.5663 C.3     1  UNL1        0.0092
     25 C          60.4050   90.2681    5.5922 C.3     1  UNL1        0.0439
     26 C          60.2516   93.1504    2.8685 C.2     1  UNL1        0.0500
     27 O          59.9706   94.6083    3.0818 O.co2   1  UNL1       -0.5492
     28 O          60.9653   92.6976    1.6292 O.co2   1  UNL1       -0.5492
@<TRIPOS>UNITY_ATOM_ATTR
27 1
charge -1
@<TRIPOS>BOND
     1    12    13    1
     2    13    14   ar
     3    14    15   ar
     4    15    16   ar
     5    16    17   ar
     6    17    11    1
     7    11     1    1
     8     1     2   ar
     9     2     3   ar
    10     3     4   ar
    11     4     5   ar
    12     5    19    1
    13    20    19    1
    14    20    21    1
    15    21    22    1
    16    22    23    1
    17    23    26    1
    18    26    27   ar
    19    26    28   ar
    20    23    24    1
    21    24    25    1
    22     5     6   ar
    23     6     7   ar
    24     7     8   ar
    25     8     9   ar
    26     9    10    1
    27    17    18   ar
    28    18    13   ar
    29     9     1   ar
    30     8     3   ar
    31    25    20    1
