@<TRIPOS>MOLECULE
*****
 26 28 0 0 0
SMALL
GASTEIGER

@<TRIPOS>ATOM
      1 C          61.2416   88.1233    9.9172 C.ar    1  UNL1        0.1724
      2 C          61.7366   89.4969    9.5733 C.ar    1  UNL1        0.0400
      3 C          62.7273   90.1826   10.4669 C.ar    1  UNL1        0.0032
      4 C          63.2223   91.5562   10.1230 C.ar    1  UNL1       -0.0001
      5 C          64.2129   92.2419   11.0166 C.ar    1  UNL1       -0.0017
      6 C          64.7084   91.5541   12.2540 C.ar    1  UNL1        0.0070
      7 C          64.2134   90.1805   12.5979 C.ar    1  UNL1       -0.0016
      8 C          63.2228   89.4948   11.7044 C.ar    1  UNL1        0.0030
      9 C          62.7277   88.1212   12.0482 C.ar    1  UNL1        0.0400
     10 C          61.7372   87.4355   11.1547 C.ar    1  UNL1        0.1724
     11 C          65.6990   92.2399   13.1476 C.3     1  UNL1        0.1417
     12 O          64.9421   91.7641   14.3520 O.3     1  UNL1       -0.3771
     13 H          64.1750   91.2434   14.0669 H       1  UNL1        0.2112
     14 C          66.4560   92.7157   11.9432 C.ar    1  UNL1        0.0902
     15 C          67.5085   91.8432   11.3259 C.ar    1  UNL1        0.0381
     16 C          68.2655   92.3190   10.1215 C.ar    1  UNL1        0.1020
     17 N          67.9699   93.6673    9.5344 N.ar    1  UNL1       -0.2224
     18 C          66.9175   94.5398   10.1516 C.ar    1  UNL1        0.1986
     19 N          66.1605   94.0640   11.3561 N.ar    1  UNL1       -0.2257
     20 C          66.6896   92.9256   14.0411 C.3     1  UNL1        0.0340
     21 C          66.7589   94.4237   14.0736 C.3     1  UNL1        0.0031
     22 C          67.6110   92.1134   14.9022 C.3     1  UNL1        0.0031
     23 C          60.6920   86.3043    8.1454 C.3     1  UNL1        0.2526
     24 O          60.2510   87.4375    9.0236 O.3     1  UNL1       -0.4684
     25 O          61.2421   86.0619   11.4986 O.3     1  UNL1       -0.4684
     26 C          62.2007   84.9091   11.5455 C.3     1  UNL1        0.2526
@<TRIPOS>BOND
     1    23    24    1
     2    24     1    1
     3     1     2   ar
     4     2     3   ar
     5     3     4   ar
     6     4     5   ar
     7     5     6   ar
     8     6    11    1
     9    11    12    1
    10    11    14    1
    11    14    15   ar
    12    15    16   ar
    13    16    17   ar
    14    17    18   ar
    15    18    19   ar
    16    11    20    1
    17    20    21    1
    18    20    22    1
    19     6     7   ar
    20     7     8   ar
    21     8     9   ar
    22     9    10   ar
    23    10    25    1
    24    25    26    1
    25    10     1   ar
    26     8     3   ar
    27    19    14   ar
    28    12    13    1
@<TRIPOS>MOLECULE
*****
 26 28 0 0 0
SMALL
GASTEIGER

@<TRIPOS>ATOM
      1 C          61.7720   88.0102   11.2733 C.ar    1  UNL1        0.1724
      2 C          62.6303   88.6017   12.3518 C.ar    1  UNL1        0.0400
      3 C          63.3938   89.8668   12.0935 C.ar    1  UNL1        0.0032
      4 C          64.2521   90.4584   13.1720 C.ar    1  UNL1       -0.0001
      5 C          65.0155   91.7234   12.9136 C.ar    1  UNL1       -0.0017
      6 C          64.9206   92.3969   11.5767 C.ar    1  UNL1        0.0070
      7 C          64.0623   91.8054   10.4981 C.ar    1  UNL1       -0.0016
      8 C          63.2989   90.5403   10.7565 C.ar    1  UNL1        0.0030
      9 C          62.4405   89.9487    9.6780 C.ar    1  UNL1        0.0400
     10 C          61.6771   88.6837    9.9363 C.ar    1  UNL1        0.1724
     11 C          65.6841   93.6620   11.3183 C.3     1  UNL1        0.1417
     12 O          64.6952   94.0420   10.2564 O.3     1  UNL1       -0.3771
     13 H          64.0166   93.3527   10.1850 H       1  UNL1        0.2112
     14 C          66.6730   93.2821   12.3802 C.ar    1  UNL1        0.0902
     15 C          66.5560   93.8653   13.7573 C.ar    1  UNL1        0.0381
     16 C          67.5449   93.4853   14.8192 C.ar    1  UNL1        0.1020
     17 N          68.6508   92.5221   14.5041 N.ar    1  UNL1       -0.2224
     18 C          68.7678   91.9389   13.1271 C.ar    1  UNL1        0.1986
     19 N          67.7789   92.3189   12.0651 N.ar    1  UNL1       -0.2257
     20 C          66.4476   94.9271   11.0600 C.3     1  UNL1        0.0340
     21 C          66.1763   96.1489   11.8868 C.3     1  UNL1        0.0031
     22 C          67.4824   94.9703    9.9749 C.3     1  UNL1        0.0031
     23 C          61.6583   85.4146   11.2916 C.3     1  UNL1        0.2526
     24 O          61.0085   86.7451   11.5316 O.3     1  UNL1       -0.4684
     25 O          60.8187   88.0921    8.8578 O.3     1  UNL1       -0.4684
     26 C          59.8766   88.9667    8.0847 C.3     1  UNL1        0.2526
@<TRIPOS>BOND
     1    23    24    1
     2    24     1    1
     3     1     2   ar
     4     2     3   ar
     5     3     4   ar
     6     4     5   ar
     7     5     6   ar
     8     6    11    1
     9    11    12    1
    10    11    14    1
    11    14    15   ar
    12    15    16   ar
    13    16    17   ar
    14    17    18   ar
    15    18    19   ar
    16    11    20    1
    17    20    21    1
    18    20    22    1
    19     6     7   ar
    20     7     8   ar
    21     8     9   ar
    22     9    10   ar
    23    10    25    1
    24    25    26    1
    25    10     1   ar
    26     8     3   ar
    27    19    14   ar
    28    12    13    1
@<TRIPOS>MOLECULE
*****
 26 28 0 0 0
SMALL
GASTEIGER

@<TRIPOS>ATOM
      1 C          64.5867   91.4202   14.4757 C.ar    1  UNL1        0.1724
      2 C          64.6336   91.6636   12.9964 C.ar    1  UNL1        0.0400
      3 C          63.6722   90.9549   12.0888 C.ar    1  UNL1        0.0032
      4 C          63.7191   91.1983   10.6094 C.ar    1  UNL1       -0.0001
      5 C          62.7578   90.4897    9.7020 C.ar    1  UNL1       -0.0017
      6 C          61.7495   89.5377   10.2738 C.ar    1  UNL1        0.0070
      7 C          61.7026   89.2943   11.7532 C.ar    1  UNL1       -0.0016
      8 C          62.6639   90.0029   12.6607 C.ar    1  UNL1        0.0030
      9 C          62.6170   89.7595   14.1401 C.ar    1  UNL1        0.0400
     10 C          63.5784   90.4681   15.0476 C.ar    1  UNL1        0.1724
     11 C          60.7881   88.8290    9.3662 C.3     1  UNL1        0.1417
     12 O          60.1648   90.1433    9.0002 O.3     1  UNL1       -0.3771
     13 H          60.6166   90.8587    9.4746 H       1  UNL1        0.2112
     14 C          61.4114   87.5147    9.7323 C.ar    1  UNL1        0.0902
     15 C          62.2510   86.7780    8.7311 C.ar    1  UNL1        0.0381
     16 C          62.8743   85.4637    9.0972 C.ar    1  UNL1        0.1020
     17 N          62.6579   84.8860   10.4645 N.ar    1  UNL1       -0.2224
     18 C          61.8184   85.6226   11.4657 C.ar    1  UNL1        0.1986
     19 N          61.1950   86.9370   11.0996 N.ar    1  UNL1       -0.2257
     20 C          59.8268   88.1204    8.4587 C.3     1  UNL1        0.0340
     21 C          59.2728   86.7826    8.8505 C.3     1  UNL1        0.0031
     22 C          59.4193   88.7495    7.1594 C.3     1  UNL1        0.0031
     23 C          66.5633   93.0728   14.8104 C.3     1  UNL1        0.2526
     24 O          65.5481   92.1288   15.3833 O.3     1  UNL1       -0.4684
     25 O          63.5315   90.2248   16.5270 O.3     1  UNL1       -0.4684
     26 C          63.1135   88.8839   17.0536 C.3     1  UNL1        0.2526
@<TRIPOS>BOND
     1    23    24    1
     2    24     1    1
     3     1     2   ar
     4     2     3   ar
     5     3     4   ar
     6     4     5   ar
     7     5     6   ar
     8     6    11    1
     9    11    12    1
    10    11    14    1
    11    14    15   ar
    12    15    16   ar
    13    16    17   ar
    14    17    18   ar
    15    18    19   ar
    16    11    20    1
    17    20    21    1
    18    20    22    1
    19     6     7   ar
    20     7     8   ar
    21     8     9   ar
    22     9    10   ar
    23    10    25    1
    24    25    26    1
    25    10     1   ar
    26     8     3   ar
    27    19    14   ar
    28    12    13    1
@<TRIPOS>MOLECULE
*****
 26 28 0 0 0
SMALL
GASTEIGER

@<TRIPOS>ATOM
      1 C          60.9097   88.1662    9.1115 C.ar    1  UNL1        0.1724
      2 C          61.8322   87.0774    8.6496 C.ar    1  UNL1        0.0400
      3 C          62.1743   85.9435    9.5701 C.ar    1  UNL1        0.0032
      4 C          63.0969   84.8547    9.1082 C.ar    1  UNL1       -0.0001
      5 C          63.4389   83.7209   10.0287 C.ar    1  UNL1       -0.0017
      6 C          62.8584   83.6758   11.4111 C.ar    1  UNL1        0.0070
      7 C          61.9358   84.7646   11.8729 C.ar    1  UNL1       -0.0016
      8 C          61.5938   85.8984   10.9525 C.ar    1  UNL1        0.0030
      9 C          60.6712   86.9873   11.4143 C.ar    1  UNL1        0.0400
     10 C          60.3291   88.1211   10.4938 C.ar    1  UNL1        0.1724
     11 C          63.2005   82.5419   12.3316 C.3     1  UNL1        0.1417
     12 O          63.1040   81.5810   11.1838 O.3     1  UNL1       -0.3771
     13 H          62.8746   82.0651   10.3752 H       1  UNL1        0.2112
     14 C          63.2970   83.5027   13.4793 C.ar    1  UNL1        0.0902
     15 C          64.4132   84.5037   13.5276 C.ar    1  UNL1        0.0381
     16 C          64.5098   85.4646   14.6753 C.ar    1  UNL1        0.1020
     17 N          63.4902   85.4246   15.7748 N.ar    1  UNL1       -0.2224
     18 C          62.3740   84.4237   15.7265 C.ar    1  UNL1        0.1986
     19 N          62.2774   83.4628   14.5787 N.ar    1  UNL1       -0.2257
     20 C          63.5426   81.4080   13.2521 C.3     1  UNL1        0.0340
     21 C          64.9071   81.3292   13.8701 C.3     1  UNL1        0.0031
     22 C          62.5201   80.3529   13.5546 C.3     1  UNL1        0.0031
     23 C          59.4685   89.1420    7.1825 C.3     1  UNL1        0.2526
     24 O          60.5676   89.3001    8.1910 O.3     1  UNL1       -0.4684
     25 O          59.4065   89.2100   10.9557 O.3     1  UNL1       -0.4684
     26 C          59.9690   90.5062   11.4592 C.3     1  UNL1        0.2526
@<TRIPOS>BOND
     1    23    24    1
     2    24     1    1
     3     1     2   ar
     4     2     3   ar
     5     3     4   ar
     6     4     5   ar
     7     5     6   ar
     8     6    11    1
     9    11    12    1
    10    11    14    1
    11    14    15   ar
    12    15    16   ar
    13    16    17   ar
    14    17    18   ar
    15    18    19   ar
    16    11    20    1
    17    20    21    1
    18    20    22    1
    19     6     7   ar
    20     7     8   ar
    21     8     9   ar
    22     9    10   ar
    23    10    25    1
    24    25    26    1
    25    10     1   ar
    26     8     3   ar
    27    19    14   ar
    28    12    13    1
@<TRIPOS>MOLECULE
*****
 26 28 0 0 0
SMALL
GASTEIGER

@<TRIPOS>ATOM
      1 C          63.2003   81.7497   11.1801 C.ar    1  UNL1        0.1724
      2 C          63.3320   82.6684   10.0017 C.ar    1  UNL1        0.0400
      3 C          62.9725   84.1184   10.1374 C.ar    1  UNL1        0.0032
      4 C          63.1041   85.0372    8.9591 C.ar    1  UNL1       -0.0001
      5 C          62.7446   86.4871    9.0947 C.ar    1  UNL1       -0.0017
      6 C          62.2534   87.0182   10.4087 C.ar    1  UNL1        0.0070
      7 C          62.1218   86.0995   11.5871 C.ar    1  UNL1       -0.0016
      8 C          62.4813   84.6496   11.4514 C.ar    1  UNL1        0.0030
      9 C          62.3496   83.7307   12.6298 C.ar    1  UNL1        0.0400
     10 C          62.7091   82.2808   12.4941 C.ar    1  UNL1        0.1724
     11 C          61.8939   88.4682   10.5444 C.3     1  UNL1        0.1417
     12 O          62.9476   88.6309   11.5994 O.3     1  UNL1       -0.3771
     13 H          63.3939   87.7819   11.7442 H       1  UNL1        0.2112
     14 C          60.8402   88.3056    9.4893 C.ar    1  UNL1        0.0902
     15 C          59.9581   87.0923    9.4909 C.ar    1  UNL1        0.0381
     16 C          58.9044   86.9297    8.4358 C.ar    1  UNL1        0.1020
     17 N          58.7328   87.9803    7.3791 N.ar    1  UNL1       -0.2224
     18 C          59.6147   89.1936    7.3774 C.ar    1  UNL1        0.1986
     19 N          60.6685   89.3563    8.4326 N.ar    1  UNL1       -0.2257
     20 C          61.5344   89.9182   10.6800 C.3     1  UNL1        0.0340
     21 C          62.5426   90.9758   10.3409 C.3     1  UNL1        0.0031
     22 C          60.1665   90.3105   11.1546 C.3     1  UNL1        0.0031
     23 C          62.9309   79.4688    9.9656 C.3     1  UNL1        0.2526
     24 O          63.5599   80.2997   11.0444 O.3     1  UNL1       -0.4684
     25 O          62.5775   81.3620   13.6725 O.3     1  UNL1       -0.4684
     26 C          61.2187   80.9312   14.1395 C.3     1  UNL1        0.2526
@<TRIPOS>BOND
     1    23    24    1
     2    24     1    1
     3     1     2   ar
     4     2     3   ar
     5     3     4   ar
     6     4     5   ar
     7     5     6   ar
     8     6    11    1
     9    11    12    1
    10    11    14    1
    11    14    15   ar
    12    15    16   ar
    13    16    17   ar
    14    17    18   ar
    15    18    19   ar
    16    11    20    1
    17    20    21    1
    18    20    22    1
    19     6     7   ar
    20     7     8   ar
    21     8     9   ar
    22     9    10   ar
    23    10    25    1
    24    25    26    1
    25    10     1   ar
    26     8     3   ar
    27    19    14   ar
    28    12    13    1
@<TRIPOS>MOLECULE
*****
 26 28 0 0 0
SMALL
GASTEIGER

@<TRIPOS>ATOM
      1 C          63.8417   82.7003   12.7428 C.ar    1  UNL1        0.1724
      2 C          63.9517   82.9748   11.2723 C.ar    1  UNL1        0.0400
      3 C          63.1659   84.0949   10.6575 C.ar    1  UNL1        0.0032
      4 C          63.2759   84.3694    9.1870 C.ar    1  UNL1       -0.0001
      5 C          62.4901   85.4895    8.5724 C.ar    1  UNL1       -0.0017
      6 C          61.5943   86.3351    9.4282 C.ar    1  UNL1        0.0070
      7 C          61.4843   86.0607   10.8988 C.ar    1  UNL1       -0.0016
      8 C          62.2701   84.9406   11.5134 C.ar    1  UNL1        0.0030
      9 C          62.1601   84.6660   12.9840 C.ar    1  UNL1        0.0400
     10 C          62.9459   83.5459   13.5987 C.ar    1  UNL1        0.1724
     11 C          60.8085   87.4553    8.8135 C.3     1  UNL1        0.1417
     12 O          60.5669   86.6165    7.5937 O.3     1  UNL1       -0.3771
     13 H          60.9939   85.7527    7.7055 H       1  UNL1        0.2112
     14 C          61.0501   88.2942   10.0333 C.ar    1  UNL1        0.0902
     15 C          62.4298   88.8002   10.3343 C.ar    1  UNL1        0.0381
     16 C          62.6714   89.6390   11.5541 C.ar    1  UNL1        0.1020
     17 N          61.5334   89.9719   12.4729 N.ar    1  UNL1       -0.2224
     18 C          60.1538   89.4659   12.1719 C.ar    1  UNL1        0.1986
     19 N          59.9121   88.6270   10.9520 N.ar    1  UNL1       -0.2257
     20 C          60.0228   88.5754    8.1988 C.3     1  UNL1        0.0340
     21 C          60.3940   89.9995    8.4890 C.3     1  UNL1        0.0031
     22 C          58.8657   88.2715    7.2939 C.3     1  UNL1        0.0031
     23 C          63.9203   80.3598   13.8680 C.3     1  UNL1        0.2526
     24 O          64.6275   81.5801   13.3576 O.3     1  UNL1       -0.4684
     25 O          62.8360   83.2714   15.0693 O.3     1  UNL1       -0.4684
     26 C          62.5203   84.3885   16.0192 C.3     1  UNL1        0.2526
@<TRIPOS>BOND
     1    23    24    1
     2    24     1    1
     3     1     2   ar
     4     2     3   ar
     5     3     4   ar
     6     4     5   ar
     7     5     6   ar
     8     6    11    1
     9    11    12    1
    10    11    14    1
    11    14    15   ar
    12    15    16   ar
    13    16    17   ar
    14    17    18   ar
    15    18    19   ar
    16    11    20    1
    17    20    21    1
    18    20    22    1
    19     6     7   ar
    20     7     8   ar
    21     8     9   ar
    22     9    10   ar
    23    10    25    1
    24    25    26    1
    25    10     1   ar
    26     8     3   ar
    27    19    14   ar
    28    12    13    1
@<TRIPOS>MOLECULE
*****
 26 28 0 0 0
SMALL
GASTEIGER

@<TRIPOS>ATOM
      1 C          61.2378   88.1311   10.9520 C.ar    1  UNL1        0.1724
      2 C          62.2623   87.7950   11.9947 C.ar    1  UNL1        0.0400
      3 C          63.1272   88.8759   12.5722 C.ar    1  UNL1        0.0032
      4 C          64.1517   88.5398   13.6150 C.ar    1  UNL1       -0.0001
      5 C          65.0166   89.6208   14.1924 C.ar    1  UNL1       -0.0017
      6 C          64.8571   91.0378   13.7271 C.ar    1  UNL1        0.0070
      7 C          63.8326   91.3739   12.6843 C.ar    1  UNL1       -0.0016
      8 C          62.9677   90.2930   12.1069 C.ar    1  UNL1        0.0030
      9 C          61.9431   90.6291   11.0640 C.ar    1  UNL1        0.0400
     10 C          61.0782   89.5481   10.4866 C.ar    1  UNL1        0.1724
     11 C          65.7221   92.1188   14.3046 C.3     1  UNL1        0.1417
     12 O          64.8918   92.1159   15.5537 O.3     1  UNL1       -0.3771
     13 H          64.1854   91.4562   15.4710 H       1  UNL1        0.2112
     14 C          66.5524   92.1216   13.0554 C.ar    1  UNL1        0.0902
     15 C          65.9630   92.6068   11.7641 C.ar    1  UNL1        0.0381
     16 C          66.7933   92.6097   10.5149 C.ar    1  UNL1        0.1020
     17 N          68.2130   92.1274   10.5569 N.ar    1  UNL1       -0.2224
     18 C          68.8024   91.6422   11.8480 C.ar    1  UNL1        0.1986
     19 N          67.9721   91.6393   13.0973 N.ar    1  UNL1       -0.2257
     20 C          66.5870   93.1997   14.8820 C.3     1  UNL1        0.0340
     21 C          67.2521   92.9981   16.2113 C.3     1  UNL1        0.0031
     22 C          66.7870   94.4821   14.1300 C.3     1  UNL1        0.0031
     23 C          60.9460   86.0791    9.3854 C.3     1  UNL1        0.2526
     24 O          60.3728   87.0501   10.3745 O.3     1  UNL1       -0.4684
     25 O          60.0537   89.8842    9.4438 O.3     1  UNL1       -0.4684
     26 C          60.1023   89.2158    8.1018 C.3     1  UNL1        0.2526
@<TRIPOS>BOND
     1    23    24    1
     2    24     1    1
     3     1     2   ar
     4     2     3   ar
     5     3     4   ar
     6     4     5   ar
     7     5     6   ar
     8     6    11    1
     9    11    12    1
    10    11    14    1
    11    14    15   ar
    12    15    16   ar
    13    16    17   ar
    14    17    18   ar
    15    18    19   ar
    16    11    20    1
    17    20    21    1
    18    20    22    1
    19     6     7   ar
    20     7     8   ar
    21     8     9   ar
    22     9    10   ar
    23    10    25    1
    24    25    26    1
    25    10     1   ar
    26     8     3   ar
    27    19    14   ar
    28    12    13    1
@<TRIPOS>MOLECULE
*****
 26 28 0 0 0
SMALL
GASTEIGER

@<TRIPOS>ATOM
      1 C          63.5328   89.4681   12.3309 C.ar    1  UNL1        0.1724
      2 C          64.0468   88.6714   13.4932 C.ar    1  UNL1        0.0400
      3 C          63.7021   87.2167   13.6164 C.ar    1  UNL1        0.0032
      4 C          64.2162   86.4200   14.7787 C.ar    1  UNL1       -0.0001
      5 C          63.8715   84.9653   14.9019 C.ar    1  UNL1       -0.0017
      6 C          63.0127   84.3074   13.8629 C.ar    1  UNL1        0.0070
      7 C          62.4986   85.1041   12.7006 C.ar    1  UNL1       -0.0016
      8 C          62.8433   86.5588   12.5774 C.ar    1  UNL1        0.0030
      9 C          62.3293   87.3555   11.4150 C.ar    1  UNL1        0.0400
     10 C          62.6740   88.8102   11.2918 C.ar    1  UNL1        0.1724
     11 C          62.6680   82.8527   13.9861 C.3     1  UNL1        0.1417
     12 O          62.1160   83.0998   15.3588 O.3     1  UNL1       -0.3771
     13 H          62.2072   84.0399   15.5795 H       1  UNL1        0.2112
     14 C          63.2200   82.6057   12.6135 C.ar    1  UNL1        0.0902
     15 C          64.4805   83.2919   12.1773 C.ar    1  UNL1        0.0381
     16 C          65.0325   83.0449   10.8046 C.ar    1  UNL1        0.1020
     17 N          64.3240   82.1116    9.8681 N.ar    1  UNL1       -0.2224
     18 C          63.0636   81.4254   10.3042 C.ar    1  UNL1        0.1986
     19 N          62.5115   81.6724   11.6770 N.ar    1  UNL1       -0.2257
     20 C          62.3233   81.3981   14.1093 C.3     1  UNL1        0.0340
     21 C          63.4138   80.3684   14.1333 C.3     1  UNL1        0.0031
     22 C          60.8882   80.9732   14.2086 C.3     1  UNL1        0.0031
     23 C          64.5952   91.6207   13.3246 C.3     1  UNL1        0.2526
     24 O          63.8775   90.9228   12.2076 O.3     1  UNL1       -0.4684
     25 O          62.1599   89.6070   10.1295 O.3     1  UNL1       -0.4684
     26 C          60.8118   89.3002    9.5476 C.3     1  UNL1        0.2526
@<TRIPOS>BOND
     1    23    24    1
     2    24     1    1
     3     1     2   ar
     4     2     3   ar
     5     3     4   ar
     6     4     5   ar
     7     5     6   ar
     8     6    11    1
     9    11    12    1
    10    11    14    1
    11    14    15   ar
    12    15    16   ar
    13    16    17   ar
    14    17    18   ar
    15    18    19   ar
    16    11    20    1
    17    20    21    1
    18    20    22    1
    19     6     7   ar
    20     7     8   ar
    21     8     9   ar
    22     9    10   ar
    23    10    25    1
    24    25    26    1
    25    10     1   ar
    26     8     3   ar
    27    19    14   ar
    28    12    13    1
@<TRIPOS>MOLECULE
*****
 26 28 0 0 0
SMALL
GASTEIGER

@<TRIPOS>ATOM
      1 C          61.8563   87.4829   10.1797 C.ar    1  UNL1        0.1724
      2 C          62.6288   87.0637   11.3952 C.ar    1  UNL1        0.0400
      3 C          63.1371   88.0988   12.3546 C.ar    1  UNL1        0.0032
      4 C          63.9096   87.6796   13.5701 C.ar    1  UNL1       -0.0001
      5 C          64.4178   88.7147   14.5295 C.ar    1  UNL1       -0.0017
      6 C          64.1535   90.1688   14.2733 C.ar    1  UNL1        0.0070
      7 C          63.3810   90.5879   13.0578 C.ar    1  UNL1       -0.0016
      8 C          62.8728   89.5529   12.0985 C.ar    1  UNL1        0.0030
      9 C          62.1002   89.9720   10.8829 C.ar    1  UNL1        0.0400
     10 C          61.5920   88.9370    9.9235 C.ar    1  UNL1        0.1724
     11 C          64.6618   91.2038   15.2328 C.3     1  UNL1        0.1417
     12 O          63.7186   90.6945   16.2820 O.3     1  UNL1       -0.3771
     13 H          63.2054   89.9536   15.9233 H       1  UNL1        0.2112
     14 C          65.6050   91.7132   14.1836 C.ar    1  UNL1        0.0902
     15 C          67.0066   91.1834   14.1141 C.ar    1  UNL1        0.0381
     16 C          67.9498   91.6928   13.0649 C.ar    1  UNL1        0.1020
     17 N          67.4914   92.7320   12.0851 N.ar    1  UNL1       -0.2224
     18 C          66.0898   93.2618   12.1545 C.ar    1  UNL1        0.1986
     19 N          65.1466   92.7524   13.2038 N.ar    1  UNL1       -0.2257
     20 C          65.1700   92.2388   16.1922 C.3     1  UNL1        0.0340
     21 C          66.5898   92.7140   16.1000 C.3     1  UNL1        0.0031
     22 C          64.2585   92.7987   17.2437 C.3     1  UNL1        0.0031
     23 C          62.3154   85.6389    8.4079 C.3     1  UNL1        0.2526
     24 O          61.3481   86.4479    9.2202 O.3     1  UNL1       -0.4684
     25 O          60.8195   89.3561    8.7079 O.3     1  UNL1       -0.4684
     26 C          59.6519   88.5377    8.2423 C.3     1  UNL1        0.2526
@<TRIPOS>BOND
     1    23    24    1
     2    24     1    1
     3     1     2   ar
     4     2     3   ar
     5     3     4   ar
     6     4     5   ar
     7     5     6   ar
     8     6    11    1
     9    11    12    1
    10    11    14    1
    11    14    15   ar
    12    15    16   ar
    13    16    17   ar
    14    17    18   ar
    15    18    19   ar
    16    11    20    1
    17    20    21    1
    18    20    22    1
    19     6     7   ar
    20     7     8   ar
    21     8     9   ar
    22     9    10   ar
    23    10    25    1
    24    25    26    1
    25    10     1   ar
    26     8     3   ar
    27    19    14   ar
    28    12    13    1
