@<TRIPOS>MOLECULE
*****
 42 47 0 0 0
SMALL
GASTEIGER

@<TRIPOS>ATOM
      1 C          63.6731   84.8229   13.0248 C.ar    1  UNL1        0.0929
      2 C          62.9036   84.1019   11.9580 C.ar    1  UNL1        0.1497
      3 O          62.2070   85.1285   11.1151 O.2     1  UNL1       -0.4533
      4 C          62.5458   86.4840   11.6609 C.ar    1  UNL1        0.1476
      5 C          62.1464   87.8658   11.2356 C.ar    1  UNL1        0.0376
      6 C          62.6531   89.0587   11.9906 C.ar    1  UNL1        0.0054
      7 C          63.5592   88.8698   13.1709 C.ar    1  UNL1        0.0274
      8 C          63.9587   87.4880   13.5962 C.ar    1  UNL1        0.1432
      9 F          64.8649   87.2991   14.7766 F       1  UNL1       -0.2041
     10 C          63.4520   86.2951   12.8412 C.ar    1  UNL1        0.0693
     11 C          62.8417   82.6153   11.7677 C.ar    1  UNL1        0.0349
     12 C          62.3180   81.7395   12.8670 C.ar    1  UNL1        0.0053
     13 C          62.2561   80.2530   12.6767 C.ar    1  UNL1        0.0297
     14 C          62.7179   79.6421   11.3869 C.ar    1  UNL1        0.1401
     15 F          62.6560   78.1556   11.1965 F       1  UNL1       -0.2042
     16 C          63.2416   80.5179   10.2875 C.ar    1  UNL1        0.0297
     17 C          63.3035   82.0045   10.4779 C.ar    1  UNL1        0.0053
     18 C          64.0659   90.0628   13.9260 C.ar    1  UNL1       -0.0016
     19 C          64.8470   91.1259   13.2121 C.ar    1  UNL1        0.0043
     20 C          65.3537   92.3190   13.9672 C.ar    1  UNL1        0.0533
     21 C          65.0793   92.4488   15.4361 C.ar    1  UNL1        0.0042
     22 C          64.2982   91.3856   16.1500 C.ar    1  UNL1       -0.0041
     23 C          63.7915   90.1927   15.3950 C.ar    1  UNL1       -0.0218
     24 C          63.0104   89.1295   16.1089 C.3     1  UNL1        0.0310
     25 C          66.1348   93.3820   13.2533 C.2     1  UNL1        0.2461
     26 O          67.4381   93.8628   13.8193 O.2     1  UNL1       -0.2701
     27 N          65.6127   93.9644   11.9733 N.am    1  UNL1       -0.2976
     28 H          64.7573   93.6488   11.6018 H       1  UNL1        0.1500
     29 C          66.3938   95.0275   11.2594 C.3     1  UNL1        0.1092
     30 C          66.9018   96.3859   10.8765 C.3     1  UNL1        0.0274
     31 C          65.8786   96.2471   11.9646 C.3     1  UNL1        0.0274
     32 C          67.1803   94.1772   10.3064 C.ar    1  UNL1        0.1549
     33 N          67.6011   92.7943   10.7070 N.ar    1  UNL1       -0.2276
     34 C          68.3876   91.9440    9.7539 C.ar    1  UNL1        0.1019
     35 C          68.7533   92.4765    8.4001 C.ar    1  UNL1        0.0413
     36 C          68.3324   93.8593    7.9995 C.ar    1  UNL1        0.1019
     37 N          67.5459   94.7097    8.9526 N.ar    1  UNL1       -0.2276
     38 C          64.7352   82.5984   16.1352 C.3     1  UNL1        0.1109
     39 N          63.8925   83.2374   15.0714 N.am    1  UNL1       -0.2991
     40 C          64.5158   84.1838   14.0886 C.2     1  UNL1        0.2490
     41 O          65.9817   84.4912   14.1696 O.2     1  UNL1       -0.2700
     42 H          62.9304   83.0356   15.0183 H       1  UNL1        0.1498
@<TRIPOS>BOND
     1    38    39    1
     2    39    40   am
     3    40    41    2
     4    40     1    1
     5     1     2   ar
     6     2    11    1
     7    11    12   ar
     8    12    13   ar
     9    13    14   ar
    10    14    15    1
    11    14    16   ar
    12    16    17   ar
    13     2     3   ar
    14     3     4   ar
    15     4     5   ar
    16     5     6   ar
    17     6     7   ar
    18     7    18    1
    19    18    19   ar
    20    19    20   ar
    21    20    25    1
    22    25    26    2
    23    25    27   am
    24    27    29    1
    25    29    32    1
    26    32    33   ar
    27    33    34   ar
    28    34    35   ar
    29    35    36   ar
    30    36    37   ar
    31    29    30    1
    32    30    31    1
    33    20    21   ar
    34    21    22   ar
    35    22    23   ar
    36    23    24    1
    37     7     8   ar
    38     8     9    1
    39     8    10   ar
    40    10     1   ar
    41    17    11   ar
    42    10     4   ar
    43    23    18   ar
    44    31    29    1
    45    37    32   ar
    46    39    42    1
    47    27    28    1
@<TRIPOS>MOLECULE
*****
 42 47 0 0 0
SMALL
GASTEIGER

@<TRIPOS>ATOM
      1 C          64.9943   91.9874   11.5643 C.ar    1  UNL1        0.0929
      2 C          66.0382   93.0599   11.4640 C.ar    1  UNL1        0.1497
      3 O          66.8684   93.0167   12.7125 O.2     1  UNL1       -0.4533
      4 C          66.3376   91.9176   13.5844 C.ar    1  UNL1        0.1476
      5 C          66.7594   91.4138   14.9329 C.ar    1  UNL1        0.0376
      6 C          66.0228   90.2739   15.5716 C.ar    1  UNL1        0.0054
      7 C          64.8645   89.6378   14.8620 C.ar    1  UNL1        0.0274
      8 C          64.4428   90.1416   13.5136 C.ar    1  UNL1        0.1432
      9 F          63.2844   89.5054   12.8039 F       1  UNL1       -0.2041
     10 C          65.1793   91.2814   12.8748 C.ar    1  UNL1        0.0693
     11 C          66.2199   94.0089   10.3167 C.ar    1  UNL1        0.0349
     12 C          65.4868   95.3174   10.3023 C.ar    1  UNL1        0.0053
     13 C          65.6686   96.2664    9.1550 C.ar    1  UNL1        0.0297
     14 C          66.5834   95.9068    8.0220 C.ar    1  UNL1        0.1401
     15 F          66.7652   96.8558    6.8746 F       1  UNL1       -0.2042
     16 C          67.3165   94.5983    8.0363 C.ar    1  UNL1        0.0297
     17 C          67.1348   93.6493    9.1837 C.ar    1  UNL1        0.0053
     18 C          64.1280   88.4978   15.5008 C.ar    1  UNL1       -0.0016
     19 C          64.2039   87.1254   14.9004 C.ar    1  UNL1        0.0043
     20 C          63.4673   85.9854   15.5393 C.ar    1  UNL1        0.0533
     21 C          62.6548   86.2180   16.7785 C.ar    1  UNL1        0.0042
     22 C          62.5789   87.5906   17.3789 C.ar    1  UNL1       -0.0041
     23 C          63.3155   88.7304   16.7401 C.ar    1  UNL1       -0.0218
     24 C          63.2395   90.1030   17.3405 C.3     1  UNL1        0.0310
     25 C          63.5433   84.6130   14.9389 C.2     1  UNL1        0.2461
     26 O          64.7376   83.7444   15.2019 O.2     1  UNL1       -0.2701
     27 N          62.4250   84.1091   14.0755 N.am    1  UNL1       -0.2976
     28 H          61.6411   84.6792   13.9029 H       1  UNL1        0.1500
     29 C          62.5009   82.7366   13.4751 C.3     1  UNL1        0.1092
     30 C          62.4034   81.2450   13.3512 C.3     1  UNL1        0.0274
     31 C          62.0279   81.9167   14.6387 C.3     1  UNL1        0.0274
     32 C          63.0003   83.0798   12.1029 C.ar    1  UNL1        0.1549
     33 N          63.9941   82.1866   11.4213 N.ar    1  UNL1       -0.2276
     34 C          64.4934   82.5299   10.0491 C.ar    1  UNL1        0.1019
     35 C          63.9990   83.7663    9.3586 C.ar    1  UNL1        0.0413
     36 C          63.0053   84.6594   10.0402 C.ar    1  UNL1        0.1019
     37 N          62.5059   84.3162   11.4124 N.ar    1  UNL1       -0.2276
     38 C          62.2118   90.0328    9.5180 C.3     1  UNL1        0.1109
     39 N          63.2572   90.3445   10.5474 N.am    1  UNL1       -0.2991
     40 C          63.9488   91.6756   10.5348 C.2     1  UNL1        0.2490
     41 O          63.5948   92.6948    9.4928 O.2     1  UNL1       -0.2700
     42 H          63.4896   89.6756   11.2313 H       1  UNL1        0.1498
@<TRIPOS>BOND
     1    38    39    1
     2    39    40   am
     3    40    41    2
     4    40     1    1
     5     1     2   ar
     6     2    11    1
     7    11    12   ar
     8    12    13   ar
     9    13    14   ar
    10    14    15    1
    11    14    16   ar
    12    16    17   ar
    13     2     3   ar
    14     3     4   ar
    15     4     5   ar
    16     5     6   ar
    17     6     7   ar
    18     7    18    1
    19    18    19   ar
    20    19    20   ar
    21    20    25    1
    22    25    26    2
    23    25    27   am
    24    27    29    1
    25    29    32    1
    26    32    33   ar
    27    33    34   ar
    28    34    35   ar
    29    35    36   ar
    30    36    37   ar
    31    29    30    1
    32    30    31    1
    33    20    21   ar
    34    21    22   ar
    35    22    23   ar
    36    23    24    1
    37     7     8   ar
    38     8     9    1
    39     8    10   ar
    40    10     1   ar
    41    17    11   ar
    42    10     4   ar
    43    23    18   ar
    44    31    29    1
    45    37    32   ar
    46    39    42    1
    47    27    28    1
@<TRIPOS>MOLECULE
*****
 42 47 0 0 0
SMALL
GASTEIGER

@<TRIPOS>ATOM
      1 C          64.6456   91.4055   12.1750 C.ar    1  UNL1        0.0929
      2 C          64.8595   91.5628   13.6513 C.ar    1  UNL1        0.1497
      3 O          63.7834   90.7947   14.3599 O.2     1  UNL1       -0.4533
      4 C          62.9045   90.1628   13.3216 C.ar    1  UNL1        0.1476
      5 C          61.6878   89.2924   13.4312 C.ar    1  UNL1        0.0376
      6 C          61.0040   88.7996   12.1905 C.ar    1  UNL1        0.0054
      7 C          61.5369   89.1771   10.8401 C.ar    1  UNL1        0.0274
      8 C          62.7536   90.0475   10.7305 C.ar    1  UNL1        0.1432
      9 F          63.2864   90.4250    9.3801 F       1  UNL1       -0.2041
     10 C          63.4374   90.5403   11.9712 C.ar    1  UNL1        0.0693
     11 C          65.9568   92.3499   14.3044 C.ar    1  UNL1        0.0349
     12 C          66.7588   91.7394   15.4152 C.ar    1  UNL1        0.0053
     13 C          67.8561   92.5265   16.0683 C.ar    1  UNL1        0.0297
     14 C          68.1513   93.9240   15.6105 C.ar    1  UNL1        0.1401
     15 F          69.2486   94.7111   16.2635 F       1  UNL1       -0.2042
     16 C          67.3493   94.5345   14.4997 C.ar    1  UNL1        0.0297
     17 C          66.2520   93.7474   13.8466 C.ar    1  UNL1        0.0053
     18 C          60.8530   88.6842    9.5994 C.ar    1  UNL1       -0.0016
     19 C          60.4209   89.6583    8.5438 C.ar    1  UNL1        0.0043
     20 C          59.7370   89.1654    7.3030 C.ar    1  UNL1        0.0533
     21 C          59.4853   87.6984    7.1179 C.ar    1  UNL1        0.0042
     22 C          59.9174   86.7242    8.1736 C.ar    1  UNL1       -0.0041
     23 C          60.6012   87.2171    9.4142 C.ar    1  UNL1       -0.0218
     24 C          61.0334   86.2429   10.4699 C.3     1  UNL1        0.0310
     25 C          59.3050   90.1396    6.2474 C.2     1  UNL1        0.2461
     26 O          57.8450   90.3664    5.9887 O.2     1  UNL1       -0.2701
     27 N          60.3329   90.8870    5.4507 N.am    1  UNL1       -0.2976
     28 H          61.2911   90.7381    5.6205 H       1  UNL1        0.1500
     29 C          59.9008   91.8611    4.3951 C.3     1  UNL1        0.1092
     30 C          59.0261   92.7941    3.6112 C.3     1  UNL1        0.0274
     31 C          58.4763   92.0808    4.8107 C.3     1  UNL1        0.0274
     32 C          61.1751   91.9798    3.6129 C.ar    1  UNL1        0.1549
     33 N          61.2877   92.9922    2.5117 N.ar    1  UNL1       -0.2276
     34 C          62.5621   93.1109    1.7295 C.ar    1  UNL1        0.1019
     35 C          63.7239   92.2172    2.0484 C.ar    1  UNL1        0.0413
     36 C          63.6113   91.2049    3.1494 C.ar    1  UNL1        0.1019
     37 N          62.3369   91.0862    3.9317 N.ar    1  UNL1       -0.2276
     38 C          67.8170   92.3639    9.9899 C.3     1  UNL1        0.1109
     39 N          66.9711   91.7617   11.0724 N.am    1  UNL1       -0.2991
     40 C          65.4915   92.0078   11.0925 C.2     1  UNL1        0.2490
     41 O          64.8579   92.8561   10.0301 O.2     1  UNL1       -0.2700
     42 H          67.3870   91.2048   11.7697 H       1  UNL1        0.1498
@<TRIPOS>BOND
     1    38    39    1
     2    39    40   am
     3    40    41    2
     4    40     1    1
     5     1     2   ar
     6     2    11    1
     7    11    12   ar
     8    12    13   ar
     9    13    14   ar
    10    14    15    1
    11    14    16   ar
    12    16    17   ar
    13     2     3   ar
    14     3     4   ar
    15     4     5   ar
    16     5     6   ar
    17     6     7   ar
    18     7    18    1
    19    18    19   ar
    20    19    20   ar
    21    20    25    1
    22    25    26    2
    23    25    27   am
    24    27    29    1
    25    29    32    1
    26    32    33   ar
    27    33    34   ar
    28    34    35   ar
    29    35    36   ar
    30    36    37   ar
    31    29    30    1
    32    30    31    1
    33    20    21   ar
    34    21    22   ar
    35    22    23   ar
    36    23    24    1
    37     7     8   ar
    38     8     9    1
    39     8    10   ar
    40    10     1   ar
    41    17    11   ar
    42    10     4   ar
    43    23    18   ar
    44    31    29    1
    45    37    32   ar
    46    39    42    1
    47    27    28    1
