@<TRIPOS>MOLECULE
*****
 41 45 0 0 0
SMALL
GASTEIGER

@<TRIPOS>ATOM
      1 C          60.2865   88.0132    9.0214 C.ar    1  UNL1        0.2400
      2 N          60.1373   89.5055    8.9922 N.ar    1  UNL1       -0.2090
      3 C          61.1043   90.3708    9.7448 C.ar    1  UNL1        0.1021
      4 C          62.2204   89.7438   10.5265 C.ar    1  UNL1        0.0208
      5 C          62.3696   88.2516   10.5557 C.ar    1  UNL1        0.0221
      6 C          61.4027   87.3863    9.8032 C.ar    1  UNL1        0.1178
      7 C          63.1874   90.6091   11.2791 C.ar    1  UNL1        0.0047
      8 C          63.9124   91.7149   10.5710 C.ar    1  UNL1        0.0385
      9 C          64.8793   92.5802   11.3236 C.ar    1  UNL1        0.1561
     10 C          65.1212   92.3396   12.7842 C.ar    1  UNL1        0.1191
     11 N          66.0882   93.2049   13.5368 N.ar    1  UNL1       -0.2109
     12 C          66.3301   92.9643   14.9975 C.ar    1  UNL1        0.2134
     13 N          67.2970   93.8295   15.7501 N.pl3   1  UNL1       -0.3275
     14 N          65.6050   91.8584   15.7056 N.ar    1  UNL1       -0.2184
     15 C          64.6381   90.9932   14.9530 C.ar    1  UNL1        0.0637
     16 C          63.9131   89.8874   15.6612 C.3     1  UNL1        0.0522
     17 C          64.3962   91.2338   13.4924 C.ar    1  UNL1        0.0344
     18 C          63.4293   90.3685   12.7398 C.ar    1  UNL1        0.0029
     19 H          67.7729   94.5553   15.2853 H       1  UNL1        0.1452
     20 H          67.4558   93.6716   16.7088 H       1  UNL1        0.1452
     21 O          65.6044   93.6860   10.6154 O.3     1  UNL1       -0.4750
     22 C          66.7990   93.3745    9.7634 C.3     1  UNL1        0.1979
     23 C          67.7596   92.2416    9.9722 C.3     1  UNL1        0.0782
     24 C          68.7970   92.3081    8.8908 C.3     1  UNL1        0.1461
     25 O          68.4775   93.4822    8.0136 O.3     1  UNL1       -0.3498
     26 C          67.2427   94.1412    8.5529 C.3     1  UNL1        0.1855
     27 C          59.8256   86.0123    7.4297 C.3     1  UNL1        0.2543
     28 O          59.3196   87.1480    8.2689 O.3     1  UNL1       -0.4553
     29 N          61.5519   85.8940    9.8324 N.pl3   1  UNL1       -0.2104
     30 H          61.2382   85.3530    9.0721 H       1  UNL1        0.1739
     31 S          62.1792   85.2261   11.0199 S.O2    1  UNL1        0.0759
     32 O          61.2401   85.9613   11.9295 O.2     1  UNL1       -0.1499
     33 O          63.1184   84.4908   10.1104 O.2     1  UNL1       -0.1499
     34 C          62.8065   84.5581   12.2076 C.ar    1  UNL1        0.1526
     35 C          62.6861   83.0733   12.3834 C.ar    1  UNL1        0.0248
     36 C          63.3134   82.4054   13.5710 C.ar    1  UNL1        0.0312
     37 C          64.0610   83.2222   14.5827 C.ar    1  UNL1        0.1425
     38 F          64.6883   82.5543   15.7704 F       1  UNL1       -0.2041
     39 C          64.1814   84.7070   14.4070 C.ar    1  UNL1        0.0606
     40 C          63.5541   85.3750   13.2194 C.ar    1  UNL1        0.1611
     41 F          63.6745   86.8598   13.0436 F       1  UNL1       -0.2027
@<TRIPOS>BOND
     1    27    28    1
     2    28     1    1
     3     1     2   ar
     4     2     3   ar
     5     3     4   ar
     6     4     7    1
     7     7     8   ar
     8     8     9   ar
     9     9    21    1
    10    22    21    1
    11    22    23    1
    12    23    24    1
    13    24    25    1
    14    25    26    1
    15     9    10   ar
    16    10    11   ar
    17    11    12   ar
    18    12    13    1
    19    12    14   ar
    20    14    15   ar
    21    15    16    1
    22    15    17   ar
    23    17    18   ar
    24     4     5   ar
    25     5     6   ar
    26     6    29    1
    27    29    31    1
    28    31    32    2
    29    31    33    2
    30    31    34    1
    31    34    35   ar
    32    35    36   ar
    33    36    37   ar
    34    37    38    1
    35    37    39   ar
    36    39    40   ar
    37    40    41    1
    38     6     1   ar
    39    40    34   ar
    40    18     7   ar
    41    26    22    1
    42    17    10   ar
    43    13    19    1
    44    13    20    1
    45    29    30    1
@<TRIPOS>MOLECULE
*****
 41 45 0 0 0
SMALL
GASTEIGER

@<TRIPOS>ATOM
      1 C          60.5628   88.4821    8.8301 C.ar    1  UNL1        0.2400
      2 N          60.3123   89.8926    9.2745 N.ar    1  UNL1       -0.2090
      3 C          61.1742   90.5087   10.3365 C.ar    1  UNL1        0.1021
      4 C          62.2865   89.7141   10.9539 C.ar    1  UNL1        0.0208
      5 C          62.5370   88.3035   10.5095 C.ar    1  UNL1        0.0221
      6 C          61.6752   87.6875    9.4476 C.ar    1  UNL1        0.1178
      7 C          63.1484   90.3301   12.0159 C.ar    1  UNL1        0.0047
      8 C          63.0319   89.8677   13.4381 C.ar    1  UNL1        0.0385
      9 C          63.8938   90.4837   14.5000 C.ar    1  UNL1        0.1561
     10 C          64.8722   91.5621   14.1397 C.ar    1  UNL1        0.1191
     11 N          65.7341   92.1781   15.2017 N.ar    1  UNL1       -0.2109
     12 C          66.7125   93.2565   14.8414 C.ar    1  UNL1        0.2134
     13 N          67.5744   93.8725   15.9033 N.pl3   1  UNL1       -0.3275
     14 N          66.8290   93.7189   13.4191 N.ar    1  UNL1       -0.2184
     15 C          65.9671   93.1029   12.3573 C.ar    1  UNL1        0.0637
     16 C          66.0837   93.5653   10.9351 C.3     1  UNL1        0.0522
     17 C          64.9887   92.0245   12.7175 C.ar    1  UNL1        0.0344
     18 C          64.1268   91.4085   11.6557 C.ar    1  UNL1        0.0029
     19 H          67.4980   93.5690   16.8367 H       1  UNL1        0.1452
     20 H          68.2166   94.5803   15.6668 H       1  UNL1        0.1452
     21 O          63.7773   90.0213   15.9222 O.3     1  UNL1       -0.4750
     22 C          63.5535   88.5689   16.2227 C.3     1  UNL1        0.1979
     23 C          62.8391   88.0161   17.4202 C.3     1  UNL1        0.0782
     24 C          62.8489   86.5198   17.3160 C.3     1  UNL1        0.1461
     25 O          63.5694   86.1477   16.0541 O.3     1  UNL1       -0.3498
     26 C          64.0048   87.4141   15.3784 C.3     1  UNL1        0.1855
     27 C          58.7927   86.7221    8.1095 C.3     1  UNL1        0.2543
     28 O          59.7009   87.8660    7.7681 O.3     1  UNL1       -0.4553
     29 N          61.9257   86.2769    9.0032 N.pl3   1  UNL1       -0.2104
     30 H          61.8041   86.0297    8.0580 H       1  UNL1        0.1739
     31 S          62.3614   85.2431    9.9988 S.O2    1  UNL1        0.0759
     32 O          61.2261   85.6313   10.8988 O.2     1  UNL1       -0.1499
     33 O          63.4968   84.8549    9.0987 O.2     1  UNL1       -0.1499
     34 C          62.7972   84.2092   10.9944 C.ar    1  UNL1        0.1526
     35 C          62.7251   82.7526   10.6434 C.ar    1  UNL1        0.0248
     36 C          63.1608   81.7188   11.6390 C.ar    1  UNL1        0.0312
     37 C          63.6686   82.1415   12.9856 C.ar    1  UNL1        0.1425
     38 F          64.1044   81.1076   13.9813 F       1  UNL1       -0.2041
     39 C          63.7408   83.5980   13.3366 C.ar    1  UNL1        0.0606
     40 C          63.3050   84.6319   12.3410 C.ar    1  UNL1        0.1611
     41 F          63.3772   86.0885   12.6920 F       1  UNL1       -0.2027
@<TRIPOS>BOND
     1    27    28    1
     2    28     1    1
     3     1     2   ar
     4     2     3   ar
     5     3     4   ar
     6     4     7    1
     7     7     8   ar
     8     8     9   ar
     9     9    21    1
    10    22    21    1
    11    22    23    1
    12    23    24    1
    13    24    25    1
    14    25    26    1
    15     9    10   ar
    16    10    11   ar
    17    11    12   ar
    18    12    13    1
    19    12    14   ar
    20    14    15   ar
    21    15    16    1
    22    15    17   ar
    23    17    18   ar
    24     4     5   ar
    25     5     6   ar
    26     6    29    1
    27    29    31    1
    28    31    32    2
    29    31    33    2
    30    31    34    1
    31    34    35   ar
    32    35    36   ar
    33    36    37   ar
    34    37    38    1
    35    37    39   ar
    36    39    40   ar
    37    40    41    1
    38     6     1   ar
    39    40    34   ar
    40    18     7   ar
    41    26    22    1
    42    17    10   ar
    43    13    19    1
    44    13    20    1
    45    29    30    1
@<TRIPOS>MOLECULE
*****
 41 45 0 0 0
SMALL
GASTEIGER

@<TRIPOS>ATOM
      1 C          63.1079   87.3353   17.1246 C.ar    1  UNL1        0.2400
      2 N          62.6084   88.7495   17.1518 N.ar    1  UNL1       -0.2090
      3 C          62.9183   89.6764   16.0138 C.ar    1  UNL1        0.1021
      4 C          63.7276   89.1891   14.8487 C.ar    1  UNL1        0.0208
      5 C          64.2271   87.7750   14.8215 C.ar    1  UNL1        0.0221
      6 C          63.9172   86.8481   15.9594 C.ar    1  UNL1        0.1178
      7 C          64.0375   90.1160   13.7108 C.ar    1  UNL1        0.0047
      8 C          63.3100   89.9722   12.4069 C.ar    1  UNL1        0.0385
      9 C          63.6199   90.8991   11.2691 C.ar    1  UNL1        0.1561
     10 C          64.6573   91.9697   11.4350 C.ar    1  UNL1        0.1191
     11 N          64.9672   92.8966   10.2970 N.ar    1  UNL1       -0.2109
     12 C          66.0046   93.9672   10.4629 C.ar    1  UNL1        0.2134
     13 N          66.3145   94.8941    9.3250 N.pl3   1  UNL1       -0.3275
     14 N          66.7322   94.1109   11.7668 N.ar    1  UNL1       -0.2184
     15 C          66.4223   93.1841   12.9047 C.ar    1  UNL1        0.0637
     16 C          67.1498   93.3278   14.2085 C.3     1  UNL1        0.0522
     17 C          65.3848   92.1135   12.7388 C.ar    1  UNL1        0.0344
     18 C          65.0749   91.1866   13.8767 C.ar    1  UNL1        0.0029
     19 H          65.8370   94.7997    8.4693 H       1  UNL1        0.1452
     20 H          66.9954   95.5967    9.4340 H       1  UNL1        0.1452
     21 O          62.8923   90.7554    9.9651 O.3     1  UNL1       -0.4750
     22 C          61.8971   89.6486    9.7797 C.3     1  UNL1        0.1979
     23 C          62.2091   88.1824    9.7239 C.3     1  UNL1        0.0782
     24 C          60.9199   87.4413    9.5272 C.3     1  UNL1        0.1461
     25 O          59.8111   88.4494    9.4614 O.3     1  UNL1       -0.3498
     26 C          60.4150   89.8135    9.6174 C.3     1  UNL1        0.1855
     27 C          62.6509   86.9512   19.6531 C.3     1  UNL1        0.2543
     28 O          62.7980   86.4085   18.2625 O.3     1  UNL1       -0.4553
     29 N          64.4167   85.4340   15.9322 N.pl3   1  UNL1       -0.2104
     30 H          64.9504   85.0859   16.6827 H       1  UNL1        0.1739
     31 S          64.1030   84.5501   14.7616 S.O2    1  UNL1        0.0759
     32 O          62.6465   84.5967   15.1168 O.2     1  UNL1       -0.1499
     33 O          65.5596   84.5036   14.4064 O.2     1  UNL1       -0.1499
     34 C          63.7893   83.6663   13.5909 C.ar    1  UNL1        0.1526
     35 C          63.8790   82.1756   13.7313 C.ar    1  UNL1        0.0248
     36 C          63.5653   81.2917   12.5607 C.ar    1  UNL1        0.0312
     37 C          63.1619   81.8986   11.2497 C.ar    1  UNL1        0.1425
     38 F          62.8481   81.0147   10.0790 F       1  UNL1       -0.2041
     39 C          63.0721   83.3893   11.1092 C.ar    1  UNL1        0.0606
     40 C          63.3859   84.2731   12.2798 C.ar    1  UNL1        0.1611
     41 F          63.2961   85.7639   12.1394 F       1  UNL1       -0.2027
@<TRIPOS>BOND
     1    27    28    1
     2    28     1    1
     3     1     2   ar
     4     2     3   ar
     5     3     4   ar
     6     4     7    1
     7     7     8   ar
     8     8     9   ar
     9     9    21    1
    10    22    21    1
    11    22    23    1
    12    23    24    1
    13    24    25    1
    14    25    26    1
    15     9    10   ar
    16    10    11   ar
    17    11    12   ar
    18    12    13    1
    19    12    14   ar
    20    14    15   ar
    21    15    16    1
    22    15    17   ar
    23    17    18   ar
    24     4     5   ar
    25     5     6   ar
    26     6    29    1
    27    29    31    1
    28    31    32    2
    29    31    33    2
    30    31    34    1
    31    34    35   ar
    32    35    36   ar
    33    36    37   ar
    34    37    38    1
    35    37    39   ar
    36    39    40   ar
    37    40    41    1
    38     6     1   ar
    39    40    34   ar
    40    18     7   ar
    41    26    22    1
    42    17    10   ar
    43    13    19    1
    44    13    20    1
    45    29    30    1
@<TRIPOS>MOLECULE
*****
 41 45 0 0 0
SMALL
GASTEIGER

@<TRIPOS>ATOM
      1 C          60.2960   88.6813    9.6310 C.ar    1  UNL1        0.2400
      2 N          60.1059   90.1047   10.0644 N.ar    1  UNL1       -0.2090
      3 C          61.2325   90.8453   10.7219 C.ar    1  UNL1        0.1021
      4 C          62.5492   90.1625   10.9459 C.ar    1  UNL1        0.0208
      5 C          62.7393   88.7392   10.5125 C.ar    1  UNL1        0.0221
      6 C          61.6127   87.9986    9.8550 C.ar    1  UNL1        0.1178
      7 C          63.6758   90.9032   11.6034 C.ar    1  UNL1        0.0047
      8 C          64.6920   91.6205   10.7652 C.ar    1  UNL1        0.0385
      9 C          65.8186   92.3611   11.4227 C.ar    1  UNL1        0.1561
     10 C          65.9290   92.3843   12.9184 C.ar    1  UNL1        0.1191
     11 N          67.0556   93.1249   13.5759 N.ar    1  UNL1       -0.2109
     12 C          67.1660   93.1481   15.0717 C.ar    1  UNL1        0.2134
     13 N          68.2926   93.8887   15.7292 N.pl3   1  UNL1       -0.3275
     14 N          66.1497   92.4307   15.9099 N.ar    1  UNL1       -0.2184
     15 C          65.0232   91.6901   15.2524 C.ar    1  UNL1        0.0637
     16 C          64.0070   90.9728   16.0907 C.3     1  UNL1        0.0522
     17 C          64.9128   91.6669   13.7567 C.ar    1  UNL1        0.0344
     18 C          63.7862   90.9264   13.0992 C.ar    1  UNL1        0.0029
     19 H          68.9596   94.3595   15.1790 H       1  UNL1        0.1452
     20 H          68.3650   93.9039   16.7109 H       1  UNL1        0.1452
     21 O          66.8348   93.0785   10.5844 O.3     1  UNL1       -0.4750
     22 C          66.6561   94.5347   10.2719 C.3     1  UNL1        0.1979
     23 C          65.8239   95.5083   11.0526 C.3     1  UNL1        0.0782
     24 C          65.9317   96.8482   10.3870 C.3     1  UNL1        0.1461
     25 O          66.8305   96.7027    9.1950 O.3     1  UNL1       -0.3498
     26 C          67.2782   95.2729    9.1238 C.3     1  UNL1        0.1855
     27 C          59.0555   87.9227    7.4780 C.3     1  UNL1        0.2543
     28 O          59.1694   87.9407    8.9735 O.3     1  UNL1       -0.4553
     29 N          61.8028   86.5752    9.4216 N.pl3   1  UNL1       -0.2104
     30 H          61.6149   86.3147    8.4909 H       1  UNL1        0.1739
     31 S          62.2790   85.5486   10.4061 S.O2    1  UNL1        0.0759
     32 O          61.2672   86.0338   11.4015 O.2     1  UNL1       -0.1499
     33 O          63.2909   85.0635    9.4107 O.2     1  UNL1       -0.1499
     34 C          62.7553   84.5220   11.3907 C.ar    1  UNL1        0.1526
     35 C          62.6151   83.0616   11.0784 C.ar    1  UNL1        0.0248
     36 C          63.0913   82.0350   12.0629 C.ar    1  UNL1        0.0312
     37 C          63.7077   82.4688   13.3597 C.ar    1  UNL1        0.1425
     38 F          64.1839   81.4422   14.3443 F       1  UNL1       -0.2041
     39 C          63.8479   83.9293   13.6720 C.ar    1  UNL1        0.0606
     40 C          63.3717   84.9558   12.6875 C.ar    1  UNL1        0.1611
     41 F          63.5118   86.4163   12.9999 F       1  UNL1       -0.2027
@<TRIPOS>BOND
     1    27    28    1
     2    28     1    1
     3     1     2   ar
     4     2     3   ar
     5     3     4   ar
     6     4     7    1
     7     7     8   ar
     8     8     9   ar
     9     9    21    1
    10    22    21    1
    11    22    23    1
    12    23    24    1
    13    24    25    1
    14    25    26    1
    15     9    10   ar
    16    10    11   ar
    17    11    12   ar
    18    12    13    1
    19    12    14   ar
    20    14    15   ar
    21    15    16    1
    22    15    17   ar
    23    17    18   ar
    24     4     5   ar
    25     5     6   ar
    26     6    29    1
    27    29    31    1
    28    31    32    2
    29    31    33    2
    30    31    34    1
    31    34    35   ar
    32    35    36   ar
    33    36    37   ar
    34    37    38    1
    35    37    39   ar
    36    39    40   ar
    37    40    41    1
    38     6     1   ar
    39    40    34   ar
    40    18     7   ar
    41    26    22    1
    42    17    10   ar
    43    13    19    1
    44    13    20    1
    45    29    30    1
@<TRIPOS>MOLECULE
*****
 41 45 0 0 0
SMALL
GASTEIGER

@<TRIPOS>ATOM
      1 C          65.0214   91.6902   15.3894 C.ar    1  UNL1        0.2400
      2 N          63.7840   90.9428   15.7897 N.ar    1  UNL1       -0.2090
      3 C          63.1381   89.9912   14.8267 C.ar    1  UNL1        0.1021
      4 C          63.7296   89.7870   13.4634 C.ar    1  UNL1        0.0208
      5 C          64.9670   90.5344   13.0632 C.ar    1  UNL1        0.0221
      6 C          65.6129   91.4860   14.0262 C.ar    1  UNL1        0.1178
      7 C          63.0837   88.8354   12.5004 C.ar    1  UNL1        0.0047
      8 C          63.3393   87.3620   12.6167 C.ar    1  UNL1        0.0385
      9 C          62.6935   86.4105   11.6537 C.ar    1  UNL1        0.1561
     10 C          61.7920   86.9325   10.5744 C.ar    1  UNL1        0.1191
     11 N          61.1461   85.9809    9.6113 N.ar    1  UNL1       -0.2109
     12 C          60.2446   86.5028    8.5320 C.ar    1  UNL1        0.2134
     13 N          59.5987   85.5513    7.5690 N.pl3   1  UNL1       -0.3275
     14 N          59.9890   87.9763    8.4158 N.ar    1  UNL1       -0.2184
     15 C          60.6349   88.9278    9.3788 C.ar    1  UNL1        0.0637
     16 C          60.3792   90.4013    9.2625 C.3     1  UNL1        0.0522
     17 C          61.5364   88.4059   10.4581 C.ar    1  UNL1        0.0344
     18 C          62.1822   89.3574   11.4211 C.ar    1  UNL1        0.0029
     19 H          59.7665   84.5842    7.6453 H       1  UNL1        0.1452
     20 H          59.0070   85.8939    6.8607 H       1  UNL1        0.1452
     21 O          62.9491   84.9370   11.7699 O.3     1  UNL1       -0.4750
     22 C          63.2237   84.3271   13.1125 C.3     1  UNL1        0.1979
     23 C          62.2138   84.0874   14.1954 C.3     1  UNL1        0.0782
     24 C          62.9225   83.4620   15.3601 C.3     1  UNL1        0.1461
     25 O          64.3704   83.3150   14.9971 O.3     1  UNL1       -0.3498
     26 C          64.5566   83.8497   13.6080 C.3     1  UNL1        0.1855
     27 C          67.1623   92.7492   16.4117 C.3     1  UNL1        0.2543
     28 O          65.6673   92.6417   16.3524 O.3     1  UNL1       -0.4553
     29 N          66.8503   92.2334   13.6259 N.pl3   1  UNL1       -0.2104
     30 H          67.6726   92.1461   14.1602 H       1  UNL1        0.1739
     31 S          66.8350   93.1137   12.4115 S.O2    1  UNL1        0.0759
     32 O          65.7034   93.9040   12.9988 O.2     1  UNL1       -0.1499
     33 O          67.9666   92.3235   11.8243 O.2     1  UNL1       -0.1499
     34 C          66.8196   93.9942   11.1971 C.ar    1  UNL1        0.1526
     35 C          66.4363   95.4389   11.3230 C.ar    1  UNL1        0.0248
     36 C          66.4208   96.3193   10.1087 C.ar    1  UNL1        0.0312
     37 C          66.7887   95.7550    8.7685 C.ar    1  UNL1        0.1425
     38 F          66.7733   96.6354    7.5541 F       1  UNL1       -0.2041
     39 C          67.1720   94.3103    8.6426 C.ar    1  UNL1        0.0606
     40 C          67.1874   93.4298    9.8569 C.ar    1  UNL1        0.1611
     41 F          67.5707   91.9851    9.7311 F       1  UNL1       -0.2027
@<TRIPOS>BOND
     1    27    28    1
     2    28     1    1
     3     1     2   ar
     4     2     3   ar
     5     3     4   ar
     6     4     7    1
     7     7     8   ar
     8     8     9   ar
     9     9    21    1
    10    22    21    1
    11    22    23    1
    12    23    24    1
    13    24    25    1
    14    25    26    1
    15     9    10   ar
    16    10    11   ar
    17    11    12   ar
    18    12    13    1
    19    12    14   ar
    20    14    15   ar
    21    15    16    1
    22    15    17   ar
    23    17    18   ar
    24     4     5   ar
    25     5     6   ar
    26     6    29    1
    27    29    31    1
    28    31    32    2
    29    31    33    2
    30    31    34    1
    31    34    35   ar
    32    35    36   ar
    33    36    37   ar
    34    37    38    1
    35    37    39   ar
    36    39    40   ar
    37    40    41    1
    38     6     1   ar
    39    40    34   ar
    40    18     7   ar
    41    26    22    1
    42    17    10   ar
    43    13    19    1
    44    13    20    1
    45    29    30    1
@<TRIPOS>MOLECULE
*****
 41 45 0 0 0
SMALL
GASTEIGER

@<TRIPOS>ATOM
      1 C          63.0152   85.2282   14.0528 C.ar    1  UNL1        0.2400
      2 N          63.6868   85.9076   15.2092 N.ar    1  UNL1       -0.2090
      3 C          64.1729   87.3199   15.0699 C.ar    1  UNL1        0.1021
      4 C          63.9874   88.0526   13.7743 C.ar    1  UNL1        0.0208
      5 C          63.3158   87.3732   12.6179 C.ar    1  UNL1        0.0221
      6 C          62.8297   85.9610   12.7571 C.ar    1  UNL1        0.1178
      7 C          64.4736   89.4649   13.6351 C.ar    1  UNL1        0.0047
      8 C          65.1929   90.1261   14.7732 C.ar    1  UNL1        0.0385
      9 C          65.6790   91.5383   14.6338 C.ar    1  UNL1        0.1561
     10 C          65.4458   92.2892   13.3564 C.ar    1  UNL1        0.1191
     11 N          65.9319   93.7014   13.2172 N.ar    1  UNL1       -0.2109
     12 C          65.6987   94.4523   11.9398 C.ar    1  UNL1        0.2134
     13 N          66.1848   95.8645   11.8005 N.pl3   1  UNL1       -0.3275
     14 N          64.9794   93.7910   10.8017 N.ar    1  UNL1       -0.2184
     15 C          64.4933   92.3788   10.9410 C.ar    1  UNL1        0.0637
     16 C          63.7740   91.7176    9.8029 C.3     1  UNL1        0.0522
     17 C          64.7265   91.6279   12.2184 C.ar    1  UNL1        0.0344
     18 C          64.2404   90.2158   12.3577 C.ar    1  UNL1        0.0029
     19 H          66.6569   96.2985   12.5474 H       1  UNL1        0.1452
     20 H          66.0317   96.3573   10.9621 H       1  UNL1        0.1452
     21 O          66.3983   92.1996   15.7720 O.3     1  UNL1       -0.4750
     22 C          67.7905   92.7226   15.5766 C.3     1  UNL1        0.1979
     23 C          68.4013   93.8921   16.2902 C.3     1  UNL1        0.0782
     24 C          69.8047   94.0603   15.7879 C.3     1  UNL1        0.1461
     25 O          70.0613   92.9947   14.7639 O.3     1  UNL1       -0.3498
     26 C          68.8165   92.1680   14.6333 C.3     1  UNL1        0.1855
     27 C          63.4977   82.7181   14.5178 C.3     1  UNL1        0.2543
     28 O          62.5290   83.8160   14.1920 O.3     1  UNL1       -0.4553
     29 N          62.1580   85.2816   11.6007 N.pl3   1  UNL1       -0.2104
     30 H          62.1691   84.2995   11.5328 H       1  UNL1        0.1739
     31 S          61.4696   86.0984   10.5478 S.O2    1  UNL1        0.0759
     32 O          60.5946   86.7152   11.5985 O.2     1  UNL1       -0.1499
     33 O          62.3445   85.4816    9.4972 O.2     1  UNL1       -0.1499
     34 C          60.7810   86.9153    9.4949 C.ar    1  UNL1        0.1526
     35 C          59.9588   86.2382    8.4387 C.ar    1  UNL1        0.0248
     36 C          59.2703   87.0550    7.3858 C.ar    1  UNL1        0.0312
     37 C          59.4039   88.5490    7.3891 C.ar    1  UNL1        0.1425
     38 F          58.7154   89.3659    6.3361 F       1  UNL1       -0.2041
     39 C          60.2261   89.2262    8.4452 C.ar    1  UNL1        0.0606
     40 C          60.9146   88.4093    9.4981 C.ar    1  UNL1        0.1611
     41 F          61.7368   89.0865   10.5543 F       1  UNL1       -0.2027
@<TRIPOS>BOND
     1    27    28    1
     2    28     1    1
     3     1     2   ar
     4     2     3   ar
     5     3     4   ar
     6     4     7    1
     7     7     8   ar
     8     8     9   ar
     9     9    21    1
    10    22    21    1
    11    22    23    1
    12    23    24    1
    13    24    25    1
    14    25    26    1
    15     9    10   ar
    16    10    11   ar
    17    11    12   ar
    18    12    13    1
    19    12    14   ar
    20    14    15   ar
    21    15    16    1
    22    15    17   ar
    23    17    18   ar
    24     4     5   ar
    25     5     6   ar
    26     6    29    1
    27    29    31    1
    28    31    32    2
    29    31    33    2
    30    31    34    1
    31    34    35   ar
    32    35    36   ar
    33    36    37   ar
    34    37    38    1
    35    37    39   ar
    36    39    40   ar
    37    40    41    1
    38     6     1   ar
    39    40    34   ar
    40    18     7   ar
    41    26    22    1
    42    17    10   ar
    43    13    19    1
    44    13    20    1
    45    29    30    1
