@<TRIPOS>MOLECULE
*****
 29 31 0 0 0
SMALL
GASTEIGER

@<TRIPOS>ATOM
      1 C          61.6826   88.4733   11.2362 C.ar    1  UNL1        0.0577
      2 C          62.6909   88.3938   12.3438 C.ar    1  UNL1        0.0462
      3 C          63.6152   89.5470   12.6007 C.ar    1  UNL1        0.1602
      4 F          64.6236   89.4675   13.7084 F       1  UNL1       -0.2027
      5 C          63.5312   90.7795   11.7500 C.ar    1  UNL1        0.1534
      6 C          62.5227   90.8589   10.6423 C.ar    1  UNL1        0.0351
      7 C          61.5985   89.7058   10.3855 C.ar    1  UNL1        0.0722
      8 CL         60.5900   89.7852    9.2778 Cl      1  UNL1       -0.0809
      9 S          64.4554   91.9326   12.0069 S.O2    1  UNL1        0.0772
     10 O          64.8820   91.9110   10.5690 O.2     1  UNL1       -0.1498
     11 O          64.0288   91.9543   13.4447 O.2     1  UNL1       -0.1498
     12 N          65.3797   93.0857   12.2638 N.pl3   1  UNL1       -0.1936
     13 H          65.3281   93.8925   11.7019 H       1  UNL1        0.1758
     14 C          66.3826   93.0096   13.3767 C.ar    1  UNL1        0.1786
     15 N          66.4599   93.9304   14.5583 N.ar    1  UNL1       -0.2214
     16 C          67.6093   93.4892   15.4152 C.ar    1  UNL1        0.1079
     17 C          68.2423   92.2957   14.7632 C.ar    1  UNL1        0.0588
     18 S          67.4841   91.9994   13.5033 S.2     1  UNL1       -0.0497
     19 N          60.7582   87.3201   10.9793 N.pl3   1  UNL1       -0.3319
     20 H          59.9486   87.2065   11.5278 H       1  UNL1        0.1468
     21 C          61.0674   86.3402    9.8865 C.3     1  UNL1        0.0870
     22 C          62.4391   85.7424    9.7812 C.3     1  UNL1        0.0213
     23 C          64.0671   81.2996   13.4705 C.3     1  UNL1        0.0896
     24 N          63.6601   82.4103   12.5481 N.3     1  UNL1       -0.2715
     25 C          64.0299   82.3526   11.0956 C.3     1  UNL1        0.0721
     26 C          63.6229   83.4633   10.1733 C.3     1  UNL1        0.0174
     27 C          62.8461   84.6317   10.7035 C.3     1  UNL1        0.0045
     28 C          62.4763   84.6895   12.1560 C.3     1  UNL1        0.0174
     29 C          62.8833   83.5788   13.0783 C.3     1  UNL1        0.0721
@<TRIPOS>BOND
     1    23    24    1
     2    24    25    1
     3    25    26    1
     4    26    27    1
     5    27    22    1
     6    22    21    1
     7    21    19    1
     8    19     1    1
     9     1     2   ar
    10     2     3   ar
    11     3     4    1
    12     3     5   ar
    13     5     9    1
    14     9    10    2
    15     9    11    2
    16     9    12    1
    17    12    14    1
    18    14    15   ar
    19    15    16   ar
    20    16    17   ar
    21    17    18   ar
    22     5     6   ar
    23     6     7   ar
    24     7     8    1
    25    27    28    1
    26    28    29    1
    27    29    24    1
    28     7     1   ar
    29    18    14   ar
    30    19    20    1
    31    12    13    1
@<TRIPOS>MOLECULE
*****
 29 31 0 0 0
SMALL
GASTEIGER

@<TRIPOS>ATOM
      1 C          63.9314   90.5926   14.1385 C.ar    1  UNL1        0.0577
      2 C          65.1159   91.2710   14.7602 C.ar    1  UNL1        0.0462
      3 C          65.9432   92.2259   13.9515 C.ar    1  UNL1        0.1602
      4 F          67.1277   92.9043   14.5733 F       1  UNL1       -0.2027
      5 C          65.5859   92.5023   12.5212 C.ar    1  UNL1        0.1534
      6 C          64.4013   91.8238   11.8994 C.ar    1  UNL1        0.0351
      7 C          63.5741   90.8690   12.7081 C.ar    1  UNL1        0.0722
      8 CL         62.3895   90.1905   12.0864 Cl      1  UNL1       -0.0809
      9 S          66.4132   93.4571   11.7125 S.O2    1  UNL1        0.0772
     10 O          66.6191   92.3970   10.6715 O.2     1  UNL1       -0.1498
     11 O          66.2073   94.5171   12.7535 O.2     1  UNL1       -0.1498
     12 N          67.2404   94.4119   10.9039 N.pl3   1  UNL1       -0.1936
     13 H          68.2160   94.4477   11.0311 H       1  UNL1        0.1758
     14 C          66.5813   95.3122    9.9013 C.ar    1  UNL1        0.1786
     15 N          65.3193   96.0945   10.1143 N.ar    1  UNL1       -0.2214
     16 C          65.0265   96.8540    8.8544 C.ar    1  UNL1        0.1079
     17 C          66.1075   96.5410    7.8626 C.ar    1  UNL1        0.0588
     18 S          67.0683   95.5881    8.5097 S.2     1  UNL1       -0.0497
     19 N          63.1041   89.6377   14.9471 N.pl3   1  UNL1       -0.3319
     20 H          62.1573   89.8380   15.1281 H       1  UNL1        0.1468
     21 C          63.7193   88.3778   15.4801 C.3     1  UNL1        0.0870
     22 C          64.4003   87.4222   14.5457 C.3     1  UNL1        0.0213
     23 C          62.3713   81.8023   13.9982 C.3     1  UNL1        0.0896
     24 N          62.8786   83.2073   14.1351 N.3     1  UNL1       -0.2715
     25 C          63.2545   83.7407   15.4856 C.3     1  UNL1        0.0721
     26 C          63.7618   85.1457   15.6225 C.3     1  UNL1        0.0174
     27 C          63.8931   86.0173   14.4088 C.3     1  UNL1        0.0045
     28 C          63.5171   85.4838   13.0583 C.3     1  UNL1        0.0174
     29 C          63.0099   84.0789   12.9214 C.3     1  UNL1        0.0721
@<TRIPOS>BOND
     1    23    24    1
     2    24    25    1
     3    25    26    1
     4    26    27    1
     5    27    22    1
     6    22    21    1
     7    21    19    1
     8    19     1    1
     9     1     2   ar
    10     2     3   ar
    11     3     4    1
    12     3     5   ar
    13     5     9    1
    14     9    10    2
    15     9    11    2
    16     9    12    1
    17    12    14    1
    18    14    15   ar
    19    15    16   ar
    20    16    17   ar
    21    17    18   ar
    22     5     6   ar
    23     6     7   ar
    24     7     8    1
    25    27    28    1
    26    28    29    1
    27    29    24    1
    28     7     1   ar
    29    18    14   ar
    30    19    20    1
    31    12    13    1
@<TRIPOS>MOLECULE
*****
 29 31 0 0 0
SMALL
GASTEIGER

@<TRIPOS>ATOM
      1 C          62.2177   88.0845   10.9536 C.ar    1  UNL1        0.0577
      2 C          63.1156   88.2714   12.1405 C.ar    1  UNL1        0.0462
      3 C          63.4781   87.0960   12.9991 C.ar    1  UNL1        0.1602
      4 F          64.3760   87.2829   14.1860 F       1  UNL1       -0.2027
      5 C          62.9427   85.7338   12.6708 C.ar    1  UNL1        0.1534
      6 C          62.0447   85.5470   11.4838 C.ar    1  UNL1        0.0351
      7 C          61.6822   86.7223   10.6252 C.ar    1  UNL1        0.0722
      8 CL         60.7843   86.5355    9.4382 Cl      1  UNL1       -0.0809
      9 S          63.3051   84.5585   13.5293 S.O2    1  UNL1        0.0772
     10 O          62.4041   85.0722   14.6129 O.2     1  UNL1       -0.1498
     11 O          64.2062   84.0449   12.4457 O.2     1  UNL1       -0.1498
     12 N          63.6676   83.3832   14.3879 N.pl3   1  UNL1       -0.1936
     13 H          64.3143   83.4909   15.1224 H       1  UNL1        0.1758
     14 C          63.0448   82.0436   14.1274 C.ar    1  UNL1        0.1786
     15 N          63.7793   80.7815   13.7845 N.ar    1  UNL1       -0.2214
     16 C          62.7666   79.6889   13.6093 C.ar    1  UNL1        0.1079
     17 C          61.4062   80.2758   13.8439 C.ar    1  UNL1        0.0588
     18 S          61.5782   81.7311   14.1641 S.2     1  UNL1       -0.0497
     19 N          61.8551   89.2599   10.0949 N.pl3   1  UNL1       -0.3319
     20 H          61.4365   89.1165    9.2154 H       1  UNL1        0.1468
     21 C          62.1304   90.6536   10.5763 C.3     1  UNL1        0.0870
     22 C          63.4023   91.3451   10.1838 C.3     1  UNL1        0.0213
     23 C          67.0623   93.5204   14.4115 C.3     1  UNL1        0.0896
     24 N          66.1473   92.9765   13.3546 N.3     1  UNL1       -0.2715
     25 C          66.1690   93.5581   11.9721 C.3     1  UNL1        0.0721
     26 C          65.2540   93.0143   10.9152 C.3     1  UNL1        0.0174
     27 C          64.3173   91.8889   11.2407 C.3     1  UNL1        0.0045
     28 C          64.2956   91.3073   12.6232 C.3     1  UNL1        0.0174
     29 C          65.2106   91.8511   13.6801 C.3     1  UNL1        0.0721
@<TRIPOS>BOND
     1    23    24    1
     2    24    25    1
     3    25    26    1
     4    26    27    1
     5    27    22    1
     6    22    21    1
     7    21    19    1
     8    19     1    1
     9     1     2   ar
    10     2     3   ar
    11     3     4    1
    12     3     5   ar
    13     5     9    1
    14     9    10    2
    15     9    11    2
    16     9    12    1
    17    12    14    1
    18    14    15   ar
    19    15    16   ar
    20    16    17   ar
    21    17    18   ar
    22     5     6   ar
    23     6     7   ar
    24     7     8    1
    25    27    28    1
    26    28    29    1
    27    29    24    1
    28     7     1   ar
    29    18    14   ar
    30    19    20    1
    31    12    13    1
@<TRIPOS>MOLECULE
*****
 29 31 0 0 0
SMALL
GASTEIGER

@<TRIPOS>ATOM
      1 C          64.2655   89.6453   14.1714 C.ar    1  UNL1        0.0577
      2 C          65.4764   90.2580   14.8104 C.ar    1  UNL1        0.0462
      3 C          66.0493   91.5320   14.2639 C.ar    1  UNL1        0.1602
      4 F          67.2602   92.1447   14.9029 F       1  UNL1       -0.2027
      5 C          65.4112   92.1934   13.0784 C.ar    1  UNL1        0.1534
      6 C          64.2003   91.5807   12.4394 C.ar    1  UNL1        0.0351
      7 C          63.6275   90.3067   12.9859 C.ar    1  UNL1        0.0722
      8 CL         62.4165   89.6940   12.3469 Cl      1  UNL1       -0.0809
      9 S          65.9841   93.4674   12.5319 S.O2    1  UNL1        0.0772
     10 O          65.8623   92.9246   11.1389 O.2     1  UNL1       -0.1498
     11 O          66.1058   94.0102   13.9248 O.2     1  UNL1       -0.1498
     12 N          66.5569   94.7414   11.9853 N.pl3   1  UNL1       -0.1936
     13 H          66.7178   95.5057   12.5847 H       1  UNL1        0.1758
     14 C          66.8845   94.8510   10.5256 C.ar    1  UNL1        0.1786
     15 N          67.9006   94.0321    9.7862 N.ar    1  UNL1       -0.2214
     16 C          67.8976   94.4737    8.3527 C.ar    1  UNL1        0.1079
     17 C          66.8796   95.5656    8.2061 C.ar    1  UNL1        0.0588
     18 S          66.2535   95.7987    9.5491 S.2     1  UNL1       -0.0497
     19 N          63.6927   88.3712   14.7180 N.pl3   1  UNL1       -0.3319
     20 H          62.8121   88.3765   15.1582 H       1  UNL1        0.1468
     21 C          64.4615   87.0893   14.5937 C.3     1  UNL1        0.0870
     22 C          64.0657   85.8952   15.4106 C.3     1  UNL1        0.0213
     23 C          62.7367   80.7111   12.6978 C.3     1  UNL1        0.0896
     24 N          63.0689   82.0071   13.3760 N.3     1  UNL1       -0.2715
     25 C          62.2101   82.5075   14.4993 C.3     1  UNL1        0.0721
     26 C          62.5424   83.8035   15.1776 C.3     1  UNL1        0.0174
     27 C          63.7334   84.5991   14.7324 C.3     1  UNL1        0.0045
     28 C          64.5923   84.0988   13.6090 C.3     1  UNL1        0.0174
     29 C          64.2600   82.8028   12.9308 C.3     1  UNL1        0.0721
@<TRIPOS>BOND
     1    23    24    1
     2    24    25    1
     3    25    26    1
     4    26    27    1
     5    27    22    1
     6    22    21    1
     7    21    19    1
     8    19     1    1
     9     1     2   ar
    10     2     3   ar
    11     3     4    1
    12     3     5   ar
    13     5     9    1
    14     9    10    2
    15     9    11    2
    16     9    12    1
    17    12    14    1
    18    14    15   ar
    19    15    16   ar
    20    16    17   ar
    21    17    18   ar
    22     5     6   ar
    23     6     7   ar
    24     7     8    1
    25    27    28    1
    26    28    29    1
    27    29    24    1
    28     7     1   ar
    29    18    14   ar
    30    19    20    1
    31    12    13    1
@<TRIPOS>MOLECULE
*****
 29 31 0 0 0
SMALL
GASTEIGER

@<TRIPOS>ATOM
      1 C          61.7553   88.5876   11.3788 C.ar    1  UNL1        0.0577
      2 C          62.7883   88.5016   12.4630 C.ar    1  UNL1        0.0462
      3 C          63.7324   89.6446   12.6919 C.ar    1  UNL1        0.1602
      4 F          64.7654   89.5585   13.7761 F       1  UNL1       -0.2027
      5 C          63.6435   90.8735   11.8365 C.ar    1  UNL1        0.1534
      6 C          62.6104   90.9595   10.7522 C.ar    1  UNL1        0.0351
      7 C          61.6664   89.8165   10.5234 C.ar    1  UNL1        0.0722
      8 CL         60.6334   89.9025    9.4392 Cl      1  UNL1       -0.0809
      9 S          64.5875   92.0165   12.0653 S.O2    1  UNL1        0.0772
     10 O          64.2519   92.0010   13.5272 O.2     1  UNL1       -0.1498
     11 O          64.9231   92.0320   10.6034 O.2     1  UNL1       -0.1498
     12 N          65.5315   93.1595   12.2941 N.pl3   1  UNL1       -0.1936
     13 H          65.6111   93.5604   13.1897 H       1  UNL1        0.1758
     14 C          66.3543   93.6916   11.1583 C.ar    1  UNL1        0.1786
     15 N          67.5278   93.0065   10.5230 N.ar    1  UNL1       -0.2214
     16 C          68.0468   93.8937    9.4305 C.ar    1  UNL1        0.1079
     17 C          67.1940   95.1271    9.3906 C.ar    1  UNL1        0.0588
     18 S          66.1480   95.0022   10.4584 S.2     1  UNL1       -0.0497
     19 N          60.8112   87.4446   11.1500 N.pl3   1  UNL1       -0.3319
     20 H          59.9939   87.3649   11.6930 H       1  UNL1        0.1468
     21 C          61.1125   86.4230   10.0938 C.3     1  UNL1        0.0870
     22 C          62.4807   85.8143   10.0076 C.3     1  UNL1        0.0213
     23 C          63.9391   81.1979   13.5519 C.3     1  UNL1        0.0896
     24 N          63.5745   82.3520   12.6659 N.3     1  UNL1       -0.2715
     25 C          62.8394   83.5300   13.2331 C.3     1  UNL1        0.0721
     26 C          62.4748   84.6841   12.3470 C.3     1  UNL1        0.0174
     27 C          62.8453   84.6602   10.8937 C.3     1  UNL1        0.0045
     28 C          63.5804   83.4822   10.3265 C.3     1  UNL1        0.0174
     29 C          63.9450   82.3281   11.2126 C.3     1  UNL1        0.0721
@<TRIPOS>BOND
     1    23    24    1
     2    24    25    1
     3    25    26    1
     4    26    27    1
     5    27    22    1
     6    22    21    1
     7    21    19    1
     8    19     1    1
     9     1     2   ar
    10     2     3   ar
    11     3     4    1
    12     3     5   ar
    13     5     9    1
    14     9    10    2
    15     9    11    2
    16     9    12    1
    17    12    14    1
    18    14    15   ar
    19    15    16   ar
    20    16    17   ar
    21    17    18   ar
    22     5     6   ar
    23     6     7   ar
    24     7     8    1
    25    27    28    1
    26    28    29    1
    27    29    24    1
    28     7     1   ar
    29    18    14   ar
    30    19    20    1
    31    12    13    1
@<TRIPOS>MOLECULE
*****
 29 31 0 0 0
SMALL
GASTEIGER

@<TRIPOS>ATOM
      1 C          63.5808   89.6767   13.1381 C.ar    1  UNL1        0.0577
      2 C          63.1956   88.5173   12.2679 C.ar    1  UNL1        0.0462
      3 C          63.3929   87.1134   12.7581 C.ar    1  UNL1        0.1602
      4 F          63.0077   85.9540   11.8879 F       1  UNL1       -0.2027
      5 C          63.9753   86.8690   14.1186 C.ar    1  UNL1        0.1534
      6 C          64.3606   88.0285   14.9889 C.ar    1  UNL1        0.0351
      7 C          64.1633   89.4323   14.4986 C.ar    1  UNL1        0.0722
      8 CL         64.5485   90.5918   15.3689 Cl      1  UNL1       -0.0809
      9 S          64.1726   85.4652   14.6089 S.O2    1  UNL1        0.0772
     10 O          65.6582   85.6305   14.4845 O.2     1  UNL1       -0.1498
     11 O          62.6870   85.2999   14.7333 O.2     1  UNL1       -0.1498
     12 N          64.3699   84.0614   15.0991 N.pl3   1  UNL1       -0.1936
     13 H          64.8765   83.8957   15.9269 H       1  UNL1        0.1758
     14 C          63.7952   82.9100   14.3283 C.ar    1  UNL1        0.1786
     15 N          62.7560   81.9484   14.8235 N.ar    1  UNL1       -0.2214
     16 C          62.4775   80.9622   13.7281 C.ar    1  UNL1        0.1079
     17 C          63.3446   81.3143   12.5558 C.ar    1  UNL1        0.0588
     18 S          64.1590   82.5181   12.9268 S.2     1  UNL1       -0.0497
     19 N          63.3836   91.0806   12.6478 N.pl3   1  UNL1       -0.3319
     20 H          62.6483   91.6284   13.0062 H       1  UNL1        0.1468
     21 C          64.3068   91.6497   11.6116 C.3     1  UNL1        0.0870
     22 C          65.5401   92.3924   12.0326 C.3     1  UNL1        0.0213
     23 C          67.7499   96.7536    8.5546 C.3     1  UNL1        0.0896
     24 N          67.1974   95.6633    9.4241 N.3     1  UNL1       -0.2715
     25 C          66.4214   96.0103   10.6599 C.3     1  UNL1        0.0721
     26 C          65.8689   94.9199   11.5294 C.3     1  UNL1        0.0174
     27 C          66.0926   93.4827   11.1631 C.3     1  UNL1        0.0045
     28 C          66.8686   93.1357    9.9273 C.3     1  UNL1        0.0174
     29 C          67.4211   94.2260    9.0578 C.3     1  UNL1        0.0721
@<TRIPOS>BOND
     1    23    24    1
     2    24    25    1
     3    25    26    1
     4    26    27    1
     5    27    22    1
     6    22    21    1
     7    21    19    1
     8    19     1    1
     9     1     2   ar
    10     2     3   ar
    11     3     4    1
    12     3     5   ar
    13     5     9    1
    14     9    10    2
    15     9    11    2
    16     9    12    1
    17    12    14    1
    18    14    15   ar
    19    15    16   ar
    20    16    17   ar
    21    17    18   ar
    22     5     6   ar
    23     6     7   ar
    24     7     8    1
    25    27    28    1
    26    28    29    1
    27    29    24    1
    28     7     1   ar
    29    18    14   ar
    30    19    20    1
    31    12    13    1
@<TRIPOS>MOLECULE
*****
 29 31 0 0 0
SMALL
GASTEIGER

@<TRIPOS>ATOM
      1 C          63.6243   89.6772   12.9656 C.ar    1  UNL1        0.0577
      2 C          63.1534   88.4954   12.1710 C.ar    1  UNL1        0.0462
      3 C          63.3309   87.1081   12.7133 C.ar    1  UNL1        0.1602
      4 F          62.8600   85.9262   11.9187 F       1  UNL1       -0.2027
      5 C          63.9792   86.9027   14.0503 C.ar    1  UNL1        0.1534
      6 C          64.4501   88.0847   14.8449 C.ar    1  UNL1        0.0351
      7 C          64.2727   89.4718   14.3026 C.ar    1  UNL1        0.0722
      8 CL         64.7436   90.6538   15.0972 Cl      1  UNL1       -0.0809
      9 S          64.1567   85.5155   14.5926 S.O2    1  UNL1        0.0772
     10 O          62.6681   85.3687   14.7041 O.2     1  UNL1       -0.1498
     11 O          65.6453   85.6624   14.4811 O.2     1  UNL1       -0.1498
     12 N          64.3341   84.1284   15.1350 N.pl3   1  UNL1       -0.1936
     13 H          64.8264   83.9878   15.9759 H       1  UNL1        0.1758
     14 C          63.7615   82.9552   14.3960 C.ar    1  UNL1        0.1786
     15 N          62.6848   82.0384   14.8961 N.ar    1  UNL1       -0.2214
     16 C          62.4229   81.0095   13.8365 C.ar    1  UNL1        0.1079
     17 C          63.3379   81.2904   12.6815 C.ar    1  UNL1        0.0588
     18 S          64.1652   82.4929   13.0273 S.2     1  UNL1       -0.0497
     19 N          63.4469   91.0645   12.4233 N.pl3   1  UNL1       -0.3319
     20 H          62.9443   91.7347   12.9405 H       1  UNL1        0.1468
     21 C          64.0351   91.4306   11.0929 C.3     1  UNL1        0.0870
     22 C          65.1480   92.4332   11.0152 C.3     1  UNL1        0.0213
     23 C          69.0012   92.9978   15.5796 C.3     1  UNL1        0.0896
     24 N          68.0379   92.8567   14.4385 N.3     1  UNL1       -0.2715
     25 C          66.8274   93.7393   14.3654 C.3     1  UNL1        0.0721
     26 C          65.8640   93.5982   13.2243 C.3     1  UNL1        0.0174
     27 C          66.1113   92.5744   12.1563 C.3     1  UNL1        0.0045
     28 C          67.3219   91.6917   12.2294 C.3     1  UNL1        0.0174
     29 C          68.2852   91.8328   13.3705 C.3     1  UNL1        0.0721
@<TRIPOS>BOND
     1    23    24    1
     2    24    25    1
     3    25    26    1
     4    26    27    1
     5    27    22    1
     6    22    21    1
     7    21    19    1
     8    19     1    1
     9     1     2   ar
    10     2     3   ar
    11     3     4    1
    12     3     5   ar
    13     5     9    1
    14     9    10    2
    15     9    11    2
    16     9    12    1
    17    12    14    1
    18    14    15   ar
    19    15    16   ar
    20    16    17   ar
    21    17    18   ar
    22     5     6   ar
    23     6     7   ar
    24     7     8    1
    25    27    28    1
    26    28    29    1
    27    29    24    1
    28     7     1   ar
    29    18    14   ar
    30    19    20    1
    31    12    13    1
@<TRIPOS>MOLECULE
*****
 29 31 0 0 0
SMALL
GASTEIGER

@<TRIPOS>ATOM
      1 C          63.4088   89.4713   15.7641 C.ar    1  UNL1        0.0577
      2 C          63.7904   90.7329   16.4801 C.ar    1  UNL1        0.0462
      3 C          64.7028   91.7236   15.8196 C.ar    1  UNL1        0.1602
      4 F          65.0843   92.9851   16.5357 F       1  UNL1       -0.2027
      5 C          65.2336   91.4526   14.4431 C.ar    1  UNL1        0.1534
      6 C          64.8520   90.1909   13.7271 C.ar    1  UNL1        0.0351
      7 C          63.9396   89.2003   14.3875 C.ar    1  UNL1        0.0722
      8 CL         63.5581   87.9386   13.6715 Cl      1  UNL1       -0.0809
      9 S          66.1460   92.4431   13.7827 S.O2    1  UNL1        0.0772
     10 O          65.0536   92.8086   12.8219 O.2     1  UNL1       -0.1498
     11 O          67.2383   92.0777   14.7435 O.2     1  UNL1       -0.1498
     12 N          67.0583   93.4337   13.1222 N.pl3   1  UNL1       -0.1936
     13 H          67.5152   94.1184   13.6623 H       1  UNL1        0.1758
     14 C          67.2746   93.3812   11.6387 C.ar    1  UNL1        0.1786
     15 N          68.0011   92.3026   10.8913 N.ar    1  UNL1       -0.2214
     16 C          67.9778   92.6528    9.4330 C.ar    1  UNL1        0.1079
     17 C          67.2369   93.9480    9.2791 C.ar    1  UNL1        0.0588
     18 S          66.8023   94.3982   10.6423 S.2     1  UNL1       -0.0497
     19 N          62.4964   88.4806   16.4245 N.pl3   1  UNL1       -0.3319
     20 H          61.5348   88.4802   16.2135 H       1  UNL1        0.1468
     21 C          63.0492   87.4905   17.4064 C.3     1  UNL1        0.0870
     22 C          62.6616   86.0445   17.3123 C.3     1  UNL1        0.0213
     23 C          64.3336   82.7939   12.5544 C.3     1  UNL1        0.0896
     24 N          63.9156   83.6066   13.7439 N.3     1  UNL1       -0.2715
     25 C          64.8786   84.5723   14.3683 C.3     1  UNL1        0.0721
     26 C          64.4606   85.3849   15.5578 C.3     1  UNL1        0.0174
     27 C          63.0796   85.2319   16.1228 C.3     1  UNL1        0.0045
     28 C          62.1166   84.2662   15.4984 C.3     1  UNL1        0.0174
     29 C          62.5346   83.4536   14.3089 C.3     1  UNL1        0.0721
@<TRIPOS>BOND
     1    23    24    1
     2    24    25    1
     3    25    26    1
     4    26    27    1
     5    27    22    1
     6    22    21    1
     7    21    19    1
     8    19     1    1
     9     1     2   ar
    10     2     3   ar
    11     3     4    1
    12     3     5   ar
    13     5     9    1
    14     9    10    2
    15     9    11    2
    16     9    12    1
    17    12    14    1
    18    14    15   ar
    19    15    16   ar
    20    16    17   ar
    21    17    18   ar
    22     5     6   ar
    23     6     7   ar
    24     7     8    1
    25    27    28    1
    26    28    29    1
    27    29    24    1
    28     7     1   ar
    29    18    14   ar
    30    19    20    1
    31    12    13    1
@<TRIPOS>MOLECULE
*****
 29 31 0 0 0
SMALL
GASTEIGER

@<TRIPOS>ATOM
      1 C          62.7011   89.7128   12.1105 C.ar    1  UNL1        0.0577
      2 C          62.7043   90.6833   10.9668 C.ar    1  UNL1        0.0462
      3 C          63.7770   91.7276   10.8722 C.ar    1  UNL1        0.1602
      4 F          63.7802   92.6980    9.7285 F       1  UNL1       -0.2027
      5 C          64.8466   91.8012   11.9213 C.ar    1  UNL1        0.1534
      6 C          64.8434   90.8307   13.0650 C.ar    1  UNL1        0.0351
      7 C          63.7707   89.7865   13.1596 C.ar    1  UNL1        0.0722
      8 CL         63.7675   88.8159   14.3034 Cl      1  UNL1       -0.0809
      9 S          65.9193   92.8454   11.8267 S.O2    1  UNL1        0.0772
     10 O          65.5404   93.3576   13.1846 O.2     1  UNL1       -0.1498
     11 O          66.2982   92.3331   10.4688 O.2     1  UNL1       -0.1498
     12 N          66.9920   93.8895   11.7321 N.pl3   1  UNL1       -0.1936
     13 H          67.7389   93.8874   12.3735 H       1  UNL1        0.1758
     14 C          66.9266   94.9370   10.6603 C.ar    1  UNL1        0.1786
     15 N          67.8625   95.0658    9.4952 N.ar    1  UNL1       -0.2214
     16 C          67.4282   96.2479    8.6803 C.ar    1  UNL1        0.1079
     17 C          66.2239   96.8498    9.3419 C.ar    1  UNL1        0.0588
     18 S          65.9140   96.0395   10.5656 S.2     1  UNL1       -0.0497
     19 N          61.6284   88.6686   12.2051 N.pl3   1  UNL1       -0.3319
     20 H          61.4613   88.2106   13.0605 H       1  UNL1        0.1468
     21 C          60.8102   88.3222   10.9966 C.3     1  UNL1        0.0870
     22 C          61.4537   87.6411    9.8253 C.3     1  UNL1        0.0213
     23 C          64.1084   82.3084   10.5430 C.3     1  UNL1        0.0896
     24 N          63.4448   83.6415   10.3636 N.3     1  UNL1       -0.2715
     25 C          62.7291   84.2841   11.5147 C.3     1  UNL1        0.0721
     26 C          62.0655   85.6172   11.3352 C.3     1  UNL1        0.0174
     27 C          62.1174   86.3079   10.0047 C.3     1  UNL1        0.0045
     28 C          62.8331   85.6654    8.8537 C.3     1  UNL1        0.0174
     29 C          63.4967   84.3322    9.0331 C.3     1  UNL1        0.0721
@<TRIPOS>BOND
     1    23    24    1
     2    24    25    1
     3    25    26    1
     4    26    27    1
     5    27    22    1
     6    22    21    1
     7    21    19    1
     8    19     1    1
     9     1     2   ar
    10     2     3   ar
    11     3     4    1
    12     3     5   ar
    13     5     9    1
    14     9    10    2
    15     9    11    2
    16     9    12    1
    17    12    14    1
    18    14    15   ar
    19    15    16   ar
    20    16    17   ar
    21    17    18   ar
    22     5     6   ar
    23     6     7   ar
    24     7     8    1
    25    27    28    1
    26    28    29    1
    27    29    24    1
    28     7     1   ar
    29    18    14   ar
    30    19    20    1
    31    12    13    1
