@<TRIPOS>MOLECULE
*****
 31 33 0 0 0
SMALL
GASTEIGER

@<TRIPOS>ATOM
      1 C          62.2527   87.1692   11.7021 C.ar    1  UNL1        0.0824
      2 C          60.9764   87.6598   11.0853 C.ar    1  UNL1        0.0191
      3 C          60.7032   89.1321   10.9979 C.ar    1  UNL1        0.0015
      4 C          61.7063   90.1138   11.5271 C.ar    1  UNL1        0.0001
      5 C          62.9826   89.6232   12.1439 C.ar    1  UNL1        0.0014
      6 C          63.2558   88.1509   12.2313 C.ar    1  UNL1        0.0191
      7 C          62.9118   85.1881    9.1939 C.3     1  UNL1        0.0522
      8 C          62.8289   84.7863   10.6367 C.ar    1  UNL1        0.0625
      9 C          63.0344   83.4033   11.1800 C.ar    1  UNL1        0.0402
     10 C          62.8584   83.4591   12.6686 C.ar    1  UNL1        0.1553
     11 N          62.5442   84.8766   13.0453 N.ar    1  UNL1       -0.1608
     12 N          62.5259   85.6969   11.7896 N.ar    1  UNL1       -0.2336
     13 C          62.9761   82.3008   13.6144 C.2     1  UNL1        0.2623
     14 N          62.4966   82.4362   15.0292 N.am    1  UNL1       -0.3240
     15 O          63.5732   81.0072   13.1453 O.2     1  UNL1       -0.2687
     16 H          62.1047   83.2852   15.3371 H       1  UNL1        0.1453
     17 H          62.5738   81.6759   15.6500 H       1  UNL1        0.1453
     18 C          63.9857   90.6049   12.6731 C.ar    1  UNL1        0.0039
     19 C          64.5121   91.6923   11.7841 C.ar    1  UNL1        0.0038
     20 C          65.5152   92.6740   12.3133 C.ar    1  UNL1        0.0714
     21 C          65.9918   92.5683   13.7316 C.ar    1  UNL1        0.0038
     22 C          65.4654   91.4809   14.6207 C.ar    1  UNL1        0.0038
     23 C          64.4623   90.4992   14.0914 C.ar    1  UNL1        0.0714
     24 C          66.0416   93.7614   11.4242 C.3     1  UNL1        0.4186
     25 F          66.5680   94.8487   10.5351 F       1  UNL1       -0.1659
     26 F          66.2772   94.6291   12.6248 F       1  UNL1       -0.1659
     27 F          65.8060   92.8937   10.2236 F       1  UNL1       -0.1659
     28 C          63.9359   89.4118   14.9805 C.3     1  UNL1        0.4186
     29 F          63.4094   88.3244   15.8696 F       1  UNL1       -0.1659
     30 F          65.1446   88.5775   14.6759 F       1  UNL1       -0.1659
     31 F          62.7271   90.2461   15.2852 F       1  UNL1       -0.1659
@<TRIPOS>BOND
     1     7     8    1
     2     8     9   ar
     3     9    10   ar
     4    10    13    1
     5    13    14   am
     6    13    15    2
     7    10    11   ar
     8    11    12   ar
     9    12     1    1
    10     1     2   ar
    11     2     3   ar
    12     3     4   ar
    13     4     5   ar
    14     5    18    1
    15    18    19   ar
    16    19    20   ar
    17    20    24    1
    18    24    25    1
    19    24    26    1
    20    24    27    1
    21    20    21   ar
    22    21    22   ar
    23    22    23   ar
    24    23    28    1
    25    28    29    1
    26    28    30    1
    27    28    31    1
    28     5     6   ar
    29    12     8   ar
    30     6     1   ar
    31    23    18   ar
    32    14    16    1
    33    14    17    1
@<TRIPOS>MOLECULE
*****
 31 33 0 0 0
SMALL
GASTEIGER

@<TRIPOS>ATOM
      1 C          62.7755   90.1589   11.4512 C.ar    1  UNL1        0.0824
      2 C          61.3488   90.5462   11.1974 C.ar    1  UNL1        0.0191
      3 C          60.3044   89.4848   11.0168 C.ar    1  UNL1        0.0015
      4 C          60.6867   88.0362   11.0900 C.ar    1  UNL1        0.0001
      5 C          62.1134   87.6489   11.3439 C.ar    1  UNL1        0.0014
      6 C          63.1578   88.7103   11.5244 C.ar    1  UNL1        0.0191
      7 C          64.3851   90.8160   14.2130 C.3     1  UNL1        0.0522
      8 C          64.5599   91.5223   12.9012 C.ar    1  UNL1        0.0625
      9 C          65.5052   92.6546   12.6287 C.ar    1  UNL1        0.0402
     10 C          65.3496   93.0524   11.1907 C.ar    1  UNL1        0.1553
     11 N          64.3081   92.1659   10.5747 N.ar    1  UNL1       -0.1608
     12 N          63.8201   91.2203   11.6318 N.ar    1  UNL1       -0.2336
     13 C          66.1031   94.1449   10.4916 C.2     1  UNL1        0.2623
     14 N          65.3723   95.3495    9.9770 N.am    1  UNL1       -0.3240
     15 O          67.5875   94.0327   10.3072 O.2     1  UNL1       -0.2687
     16 H          64.3980   95.4231   10.0981 H       1  UNL1        0.1453
     17 H          65.8668   96.0665    9.5182 H       1  UNL1        0.1453
     18 C          62.4956   86.2003   11.4171 C.ar    1  UNL1        0.0039
     19 C          62.9750   85.6157   12.7126 C.ar    1  UNL1        0.0038
     20 C          63.3573   84.1671   12.7858 C.ar    1  UNL1        0.0714
     21 C          63.2602   83.3031   11.5635 C.ar    1  UNL1        0.0038
     22 C          62.7809   83.8877   10.2680 C.ar    1  UNL1        0.0038
     23 C          62.3986   85.3363   10.1948 C.ar    1  UNL1        0.0714
     24 C          63.8366   83.5825   14.0814 C.3     1  UNL1        0.4186
     25 F          64.3159   82.9979   15.3770 F       1  UNL1       -0.1659
     26 F          65.1746   84.2295   13.8784 F       1  UNL1       -0.1659
     27 F          62.4987   82.9355   14.2845 F       1  UNL1       -0.1659
     28 C          61.9192   85.9209    8.8992 C.3     1  UNL1        0.4186
     29 F          61.4398   86.5055    7.6037 F       1  UNL1       -0.1659
     30 F          63.3399   86.1587    8.4808 F       1  UNL1       -0.1659
     31 F          60.4986   85.6832    9.3176 F       1  UNL1       -0.1659
@<TRIPOS>BOND
     1     7     8    1
     2     8     9   ar
     3     9    10   ar
     4    10    13    1
     5    13    14   am
     6    13    15    2
     7    10    11   ar
     8    11    12   ar
     9    12     1    1
    10     1     2   ar
    11     2     3   ar
    12     3     4   ar
    13     4     5   ar
    14     5    18    1
    15    18    19   ar
    16    19    20   ar
    17    20    24    1
    18    24    25    1
    19    24    26    1
    20    24    27    1
    21    20    21   ar
    22    21    22   ar
    23    22    23   ar
    24    23    28    1
    25    28    29    1
    26    28    30    1
    27    28    31    1
    28     5     6   ar
    29    12     8   ar
    30     6     1   ar
    31    23    18   ar
    32    14    16    1
    33    14    17    1
@<TRIPOS>MOLECULE
*****
 31 33 0 0 0
SMALL
GASTEIGER

@<TRIPOS>ATOM
      1 C          63.8865   88.4305   13.5538 C.ar    1  UNL1        0.0824
      2 C          64.2076   87.1526   14.2705 C.ar    1  UNL1        0.0191
      3 C          63.7404   85.8415   13.7115 C.ar    1  UNL1        0.0015
      4 C          62.9521   85.8082   12.4358 C.ar    1  UNL1        0.0001
      5 C          62.6311   87.0861   11.7190 C.ar    1  UNL1        0.0014
      6 C          63.0983   88.3973   12.2780 C.ar    1  UNL1        0.0191
      7 C          63.1663   89.6237   16.5046 C.3     1  UNL1        0.0522
      8 C          64.0227   90.2902   15.4691 C.ar    1  UNL1        0.0625
      9 C          64.6983   91.6222   15.6081 C.ar    1  UNL1        0.0402
     10 C          65.4470   91.8970   14.3376 C.ar    1  UNL1        0.1553
     11 N          65.2340   90.7349   13.4135 N.ar    1  UNL1       -0.1608
     12 N          64.3537   89.7418   14.1128 N.ar    1  UNL1       -0.2336
     13 C          66.2650   93.1193   14.0431 C.2     1  UNL1        0.2623
     14 N          67.1237   93.7232   15.1145 N.am    1  UNL1       -0.3240
     15 O          66.2243   93.7377   12.6771 O.2     1  UNL1       -0.2687
     16 H          67.1504   93.3173   16.0110 H       1  UNL1        0.1453
     17 H          67.6606   94.5255   14.9212 H       1  UNL1        0.1453
     18 C          61.8428   87.0529   10.4433 C.ar    1  UNL1        0.0039
     19 C          62.1847   86.0557    9.3762 C.ar    1  UNL1        0.0038
     20 C          61.3965   86.0225    8.1004 C.ar    1  UNL1        0.0714
     21 C          60.2663   86.9864    7.8917 C.ar    1  UNL1        0.0038
     22 C          59.9245   87.9836    8.9588 C.ar    1  UNL1        0.0038
     23 C          60.7127   88.0168   10.2346 C.ar    1  UNL1        0.0714
     24 C          61.7384   85.0252    7.0333 C.3     1  UNL1        0.4186
     25 F          62.0804   84.0280    5.9663 F       1  UNL1       -0.1659
     26 F          60.2890   84.9281    6.6595 F       1  UNL1       -0.1659
     27 F          63.1878   85.1223    7.4071 F       1  UNL1       -0.1659
     28 C          60.3708   89.0141   11.3017 C.3     1  UNL1        0.4186
     29 F          60.0288   90.0112   12.3688 F       1  UNL1       -0.1659
     30 F          61.1536   90.0644   10.5710 F       1  UNL1       -0.1659
     31 F          59.5879   87.9637   12.0323 F       1  UNL1       -0.1659
@<TRIPOS>BOND
     1     7     8    1
     2     8     9   ar
     3     9    10   ar
     4    10    13    1
     5    13    14   am
     6    13    15    2
     7    10    11   ar
     8    11    12   ar
     9    12     1    1
    10     1     2   ar
    11     2     3   ar
    12     3     4   ar
    13     4     5   ar
    14     5    18    1
    15    18    19   ar
    16    19    20   ar
    17    20    24    1
    18    24    25    1
    19    24    26    1
    20    24    27    1
    21    20    21   ar
    22    21    22   ar
    23    22    23   ar
    24    23    28    1
    25    28    29    1
    26    28    30    1
    27    28    31    1
    28     5     6   ar
    29    12     8   ar
    30     6     1   ar
    31    23    18   ar
    32    14    16    1
    33    14    17    1
@<TRIPOS>MOLECULE
*****
 31 33 0 0 0
SMALL
GASTEIGER

@<TRIPOS>ATOM
      1 C          63.5291   88.9818   12.9239 C.ar    1  UNL1        0.0824
      2 C          62.5692   89.3568   11.8340 C.ar    1  UNL1        0.0191
      3 C          61.8598   88.2867   11.0585 C.ar    1  UNL1        0.0015
      4 C          62.1103   86.8415   11.3728 C.ar    1  UNL1        0.0001
      5 C          63.0702   86.4665   12.4627 C.ar    1  UNL1        0.0014
      6 C          63.7796   87.5366   13.2383 C.ar    1  UNL1        0.0191
      7 C          63.1628   89.6074   16.1058 C.3     1  UNL1        0.0522
      8 C          64.0702   90.3395   15.1620 C.ar    1  UNL1        0.0625
      9 C          64.9685   91.4876   15.5151 C.ar    1  UNL1        0.0402
     10 C          65.6922   91.9097   14.2708 C.ar    1  UNL1        0.1553
     11 N          65.2411   91.0224   13.1487 N.ar    1  UNL1       -0.1608
     12 N          64.2386   90.0519   13.6995 N.ar    1  UNL1       -0.2336
     13 C          66.6915   93.0235   14.1669 C.2     1  UNL1        0.2623
     14 N          68.1458   92.7519   14.4145 N.am    1  UNL1       -0.3240
     15 O          66.2365   94.4089   13.8153 O.2     1  UNL1       -0.2687
     16 H          68.4444   91.8426   14.6453 H       1  UNL1        0.1453
     17 H          68.8017   93.4829   14.3463 H       1  UNL1        0.1453
     18 C          63.3206   85.0214   12.7771 C.ar    1  UNL1        0.0039
     19 C          63.1673   83.9832   11.7054 C.ar    1  UNL1        0.0038
     20 C          63.4178   82.5380   12.0197 C.ar    1  UNL1        0.0714
     21 C          63.8216   82.1311   13.4058 C.ar    1  UNL1        0.0038
     22 C          63.9749   83.1692   14.4775 C.ar    1  UNL1        0.0038
     23 C          63.7245   84.6144   14.1632 C.ar    1  UNL1        0.0714
     24 C          63.2644   81.4998   10.9479 C.3     1  UNL1        0.4186
     25 F          63.1110   80.4617    9.8762 F       1  UNL1       -0.1659
     26 F          63.8317   82.4557    9.9408 F       1  UNL1       -0.1659
     27 F          62.6971   80.5440   11.9551 F       1  UNL1       -0.1659
     28 C          63.8778   85.6526   15.2350 C.3     1  UNL1        0.4186
     29 F          64.0312   86.6907   16.3067 F       1  UNL1       -0.1659
     30 F          65.3234   85.8162   14.8697 F       1  UNL1       -0.1659
     31 F          62.4322   85.4890   15.6002 F       1  UNL1       -0.1659
@<TRIPOS>BOND
     1     7     8    1
     2     8     9   ar
     3     9    10   ar
     4    10    13    1
     5    13    14   am
     6    13    15    2
     7    10    11   ar
     8    11    12   ar
     9    12     1    1
    10     1     2   ar
    11     2     3   ar
    12     3     4   ar
    13     4     5   ar
    14     5    18    1
    15    18    19   ar
    16    19    20   ar
    17    20    24    1
    18    24    25    1
    19    24    26    1
    20    24    27    1
    21    20    21   ar
    22    21    22   ar
    23    22    23   ar
    24    23    28    1
    25    28    29    1
    26    28    30    1
    27    28    31    1
    28     5     6   ar
    29    12     8   ar
    30     6     1   ar
    31    23    18   ar
    32    14    16    1
    33    14    17    1
@<TRIPOS>MOLECULE
*****
 31 33 0 0 0
SMALL
GASTEIGER

@<TRIPOS>ATOM
      1 C          62.7557   87.8385   11.8258 C.ar    1  UNL1        0.0824
      2 C          62.0151   87.9351   10.5250 C.ar    1  UNL1        0.0191
      3 C          61.5737   86.6875    9.8189 C.ar    1  UNL1        0.0015
      4 C          61.8730   85.3433   10.4136 C.ar    1  UNL1        0.0001
      5 C          62.6136   85.2468   11.7144 C.ar    1  UNL1        0.0014
      6 C          63.0550   86.4944   12.4205 C.ar    1  UNL1        0.0191
      7 C          63.2552   90.7515   10.4419 C.3     1  UNL1        0.0522
      8 C          63.4266   90.4251   11.8959 C.ar    1  UNL1        0.0625
      9 C          63.8578   91.3803   12.9690 C.ar    1  UNL1        0.0402
     10 C          63.8947   90.6318   14.2684 C.ar    1  UNL1        0.1553
     11 N          63.4863   89.2140   13.9983 N.ar    1  UNL1       -0.1608
     12 N          63.1970   89.0862   12.5320 N.ar    1  UNL1       -0.2336
     13 C          64.2734   91.2011   15.6035 C.2     1  UNL1        0.2623
     14 N          65.5067   92.0445   15.7366 N.am    1  UNL1       -0.3240
     15 O          63.4189   90.9271   16.8054 O.2     1  UNL1       -0.2687
     16 H          66.0676   92.2243   14.9477 H       1  UNL1        0.1453
     17 H          65.7553   92.4182   16.6129 H       1  UNL1        0.1453
     18 C          62.9129   83.9026   12.3091 C.ar    1  UNL1        0.0039
     19 C          62.7190   82.6605   11.4909 C.ar    1  UNL1        0.0038
     20 C          63.0183   81.3163   12.0855 C.ar    1  UNL1        0.0714
     21 C          63.5115   81.2143   13.4984 C.ar    1  UNL1        0.0038
     22 C          63.7054   82.4564   14.3166 C.ar    1  UNL1        0.0038
     23 C          63.4061   83.8006   13.7220 C.ar    1  UNL1        0.0714
     24 C          62.8244   80.0742   11.2672 C.3     1  UNL1        0.4186
     25 F          62.6305   78.8321   10.4490 F       1  UNL1       -0.1659
     26 F          63.2161   80.8275   10.0308 F       1  UNL1       -0.1659
     27 F          62.4327   79.3208   12.5037 F       1  UNL1       -0.1659
     28 C          63.6000   85.0427   14.5403 C.3     1  UNL1        0.4186
     29 F          63.7940   86.2848   15.3585 F       1  UNL1       -0.1659
     30 F          62.1788   84.9542   15.0116 F       1  UNL1       -0.1659
     31 F          65.0213   85.1313   14.0689 F       1  UNL1       -0.1659
@<TRIPOS>BOND
     1     7     8    1
     2     8     9   ar
     3     9    10   ar
     4    10    13    1
     5    13    14   am
     6    13    15    2
     7    10    11   ar
     8    11    12   ar
     9    12     1    1
    10     1     2   ar
    11     2     3   ar
    12     3     4   ar
    13     4     5   ar
    14     5    18    1
    15    18    19   ar
    16    19    20   ar
    17    20    24    1
    18    24    25    1
    19    24    26    1
    20    24    27    1
    21    20    21   ar
    22    21    22   ar
    23    22    23   ar
    24    23    28    1
    25    28    29    1
    26    28    30    1
    27    28    31    1
    28     5     6   ar
    29    12     8   ar
    30     6     1   ar
    31    23    18   ar
    32    14    16    1
    33    14    17    1
@<TRIPOS>MOLECULE
*****
 31 33 0 0 0
SMALL
GASTEIGER

@<TRIPOS>ATOM
      1 C          63.1899   90.1793   12.2048 C.ar    1  UNL1        0.0824
      2 C          61.9916   90.7419   11.4995 C.ar    1  UNL1        0.0191
      3 C          61.0102   89.8210   10.8373 C.ar    1  UNL1        0.0015
      4 C          61.2270   88.3373   10.8805 C.ar    1  UNL1        0.0001
      5 C          62.4253   87.7747   11.5858 C.ar    1  UNL1        0.0014
      6 C          63.4068   88.6957   12.2480 C.ar    1  UNL1        0.0191
      7 C          65.1051   92.3481   10.6953 C.3     1  UNL1        0.0522
      8 C          65.0517   92.0971   12.1732 C.ar    1  UNL1        0.0625
      9 C          65.8693   92.7990   13.2167 C.ar    1  UNL1        0.0402
     10 C          65.4943   92.2360   14.5555 C.ar    1  UNL1        0.1553
     11 N          64.4450   91.1861   14.3394 N.ar    1  UNL1       -0.1608
     12 N          64.1714   91.1003   12.8670 N.ar    1  UNL1       -0.2336
     13 C          66.0679   92.6501   15.8782 C.2     1  UNL1        0.2623
     14 N          65.1733   92.7843   17.0747 N.am    1  UNL1       -0.3240
     15 O          67.5361   92.9300   16.0043 O.2     1  UNL1       -0.2687
     16 H          64.2096   92.6005   16.9920 H       1  UNL1        0.1453
     17 H          65.5498   93.0561   17.9429 H       1  UNL1        0.1453
     18 C          62.6422   86.2911   11.6289 C.ar    1  UNL1        0.0039
     19 C          63.1423   85.6424   12.8855 C.ar    1  UNL1        0.0038
     20 C          63.3591   84.1588   12.9287 C.ar    1  UNL1        0.0714
     21 C          63.0759   83.3239   11.7152 C.ar    1  UNL1        0.0038
     22 C          62.5758   83.9725   10.4586 C.ar    1  UNL1        0.0038
     23 C          62.3589   85.4561   10.4155 C.ar    1  UNL1        0.0714
     24 C          63.8593   83.5102   14.1854 C.3     1  UNL1        0.4186
     25 F          64.3593   82.8616   15.4420 F       1  UNL1       -0.1659
     26 F          65.1821   84.1960   14.0130 F       1  UNL1       -0.1659
     27 F          62.5364   82.8244   14.3578 F       1  UNL1       -0.1659
     28 C          61.8588   86.1048    9.1588 C.3     1  UNL1        0.4186
     29 F          61.3587   86.7534    7.9021 F       1  UNL1       -0.1659
     30 F          60.4455   85.8285    9.5786 F       1  UNL1       -0.1659
     31 F          63.2721   86.3810    8.7390 F       1  UNL1       -0.1659
@<TRIPOS>BOND
     1     7     8    1
     2     8     9   ar
     3     9    10   ar
     4    10    13    1
     5    13    14   am
     6    13    15    2
     7    10    11   ar
     8    11    12   ar
     9    12     1    1
    10     1     2   ar
    11     2     3   ar
    12     3     4   ar
    13     4     5   ar
    14     5    18    1
    15    18    19   ar
    16    19    20   ar
    17    20    24    1
    18    24    25    1
    19    24    26    1
    20    24    27    1
    21    20    21   ar
    22    21    22   ar
    23    22    23   ar
    24    23    28    1
    25    28    29    1
    26    28    30    1
    27    28    31    1
    28     5     6   ar
    29    12     8   ar
    30     6     1   ar
    31    23    18   ar
    32    14    16    1
    33    14    17    1
@<TRIPOS>MOLECULE
*****
 31 33 0 0 0
SMALL
GASTEIGER

@<TRIPOS>ATOM
      1 C          63.6093   86.4063   15.3247 C.ar    1  UNL1        0.0824
      2 C          63.0076   86.6230   16.6815 C.ar    1  UNL1        0.0191
      3 C          62.9099   88.0094   17.2458 C.ar    1  UNL1        0.0015
      4 C          63.4138   89.1790   16.4533 C.ar    1  UNL1        0.0001
      5 C          64.0155   88.9623   15.0965 C.ar    1  UNL1        0.0014
      6 C          64.1132   87.5759   14.5322 C.ar    1  UNL1        0.0191
      7 C          66.3583   84.8812   14.4488 C.3     1  UNL1        0.0522
      8 C          64.9706   84.3190   14.3577 C.ar    1  UNL1        0.0625
      9 C          64.6029   82.9570   13.8481 C.ar    1  UNL1        0.0402
     10 C          63.1121   82.8161   13.9357 C.ar    1  UNL1        0.1553
     11 N          62.5585   84.0911   14.4995 N.ar    1  UNL1       -0.1608
     12 N          63.7071   85.0199   14.7604 N.ar    1  UNL1       -0.2336
     13 C          62.3149   81.6118   13.5307 C.2     1  UNL1        0.2623
     14 N          61.1521   81.1661   14.3669 N.am    1  UNL1       -0.3240
     15 O          62.6805   80.8532   12.2894 O.2     1  UNL1       -0.2687
     16 H          60.9121   81.6641   15.1816 H       1  UNL1        0.1453
     17 H          60.6289   80.3757   14.1010 H       1  UNL1        0.1453
     18 C          64.5194   90.1319   14.3040 C.ar    1  UNL1        0.0039
     19 C          65.6814   90.9350   14.8087 C.ar    1  UNL1        0.0038
     20 C          66.1853   92.1046   14.0162 C.ar    1  UNL1        0.0714
     21 C          65.5273   92.4711   12.7190 C.ar    1  UNL1        0.0038
     22 C          64.3653   91.6680   12.2144 C.ar    1  UNL1        0.0038
     23 C          63.8614   90.4984   13.0069 C.ar    1  UNL1        0.0714
     24 C          67.3474   92.9078   14.5209 C.3     1  UNL1        0.4186
     25 F          68.5094   93.7109   15.0256 F       1  UNL1       -0.1659
     26 F          66.6450   94.1727   14.1253 F       1  UNL1       -0.1659
     27 F          68.0498   91.6429   14.9165 F       1  UNL1       -0.1659
     28 C          62.6993   89.6952   12.5022 C.3     1  UNL1        0.4186
     29 F          61.5373   88.8921   11.9975 F       1  UNL1       -0.1659
     30 F          63.5227   89.2373   11.3350 F       1  UNL1       -0.1659
     31 F          61.8760   90.1531   13.6694 F       1  UNL1       -0.1659
@<TRIPOS>BOND
     1     7     8    1
     2     8     9   ar
     3     9    10   ar
     4    10    13    1
     5    13    14   am
     6    13    15    2
     7    10    11   ar
     8    11    12   ar
     9    12     1    1
    10     1     2   ar
    11     2     3   ar
    12     3     4   ar
    13     4     5   ar
    14     5    18    1
    15    18    19   ar
    16    19    20   ar
    17    20    24    1
    18    24    25    1
    19    24    26    1
    20    24    27    1
    21    20    21   ar
    22    21    22   ar
    23    22    23   ar
    24    23    28    1
    25    28    29    1
    26    28    30    1
    27    28    31    1
    28     5     6   ar
    29    12     8   ar
    30     6     1   ar
    31    23    18   ar
    32    14    16    1
    33    14    17    1
@<TRIPOS>MOLECULE
*****
 31 33 0 0 0
SMALL
GASTEIGER

@<TRIPOS>ATOM
      1 C          62.4050   87.4698   11.5697 C.ar    1  UNL1        0.0824
      2 C          63.2802   88.2637   12.4936 C.ar    1  UNL1        0.0191
      3 C          64.0480   87.5702   13.5797 C.ar    1  UNL1        0.0015
      4 C          63.9404   86.0829   13.7420 C.ar    1  UNL1        0.0001
      5 C          63.0651   85.2890   12.8181 C.ar    1  UNL1        0.0014
      6 C          62.2974   85.9825   11.7320 C.ar    1  UNL1        0.0191
      7 C          62.5148   90.6571   10.8776 C.3     1  UNL1        0.0522
      8 C          61.6877   89.6282   10.1654 C.ar    1  UNL1        0.0625
      9 C          60.7658   89.8837    9.0101 C.ar    1  UNL1        0.0402
     10 C          60.1455   88.5766    8.6141 C.ar    1  UNL1        0.1553
     11 N          60.6841   87.5133    9.5247 N.ar    1  UNL1       -0.1608
     12 N          61.6372   88.1632   10.4835 N.ar    1  UNL1       -0.2336
     13 C          59.1598   88.3693    7.5026 C.2     1  UNL1        0.2623
     14 N          58.9812   89.4248    6.4519 N.am    1  UNL1       -0.3240
     15 O          58.3527   87.1064    7.4419 O.2     1  UNL1       -0.2687
     16 H          59.5109   90.2537    6.4918 H       1  UNL1        0.1453
     17 H          58.3343   89.2887    5.7224 H       1  UNL1        0.1453
     18 C          62.9576   83.8017   12.9803 C.ar    1  UNL1        0.0039
     19 C          63.0592   82.9071   11.7807 C.ar    1  UNL1        0.0038
     20 C          62.9517   81.4198   11.9429 C.ar    1  UNL1        0.0714
     21 C          62.7425   80.8271   13.3048 C.ar    1  UNL1        0.0038
     22 C          62.6409   81.7217   14.5045 C.ar    1  UNL1        0.0038
     23 C          62.7484   83.2090   14.3423 C.ar    1  UNL1        0.0714
     24 C          63.0533   80.5252   10.7431 C.3     1  UNL1        0.4186
     25 F          63.1549   79.6306    9.5434 F       1  UNL1       -0.1659
     26 F          62.6084   79.3590   11.5749 F       1  UNL1       -0.1659
     27 F          63.4982   81.6914    9.9113 F       1  UNL1       -0.1659
     28 C          62.6468   84.1036   15.5421 C.3     1  UNL1        0.4186
     29 F          62.5453   84.9982   16.7418 F       1  UNL1       -0.1659
     30 F          61.2254   84.4220   15.1843 F       1  UNL1       -0.1659
     31 F          64.0683   83.7853   15.8998 F       1  UNL1       -0.1659
@<TRIPOS>BOND
     1     7     8    1
     2     8     9   ar
     3     9    10   ar
     4    10    13    1
     5    13    14   am
     6    13    15    2
     7    10    11   ar
     8    11    12   ar
     9    12     1    1
    10     1     2   ar
    11     2     3   ar
    12     3     4   ar
    13     4     5   ar
    14     5    18    1
    15    18    19   ar
    16    19    20   ar
    17    20    24    1
    18    24    25    1
    19    24    26    1
    20    24    27    1
    21    20    21   ar
    22    21    22   ar
    23    22    23   ar
    24    23    28    1
    25    28    29    1
    26    28    30    1
    27    28    31    1
    28     5     6   ar
    29    12     8   ar
    30     6     1   ar
    31    23    18   ar
    32    14    16    1
    33    14    17    1
@<TRIPOS>MOLECULE
*****
 31 33 0 0 0
SMALL
GASTEIGER

@<TRIPOS>ATOM
      1 C          64.5463   90.7531   14.3069 C.ar    1  UNL1        0.0824
      2 C          64.0858   90.7790   15.7342 C.ar    1  UNL1        0.0191
      3 C          63.3580   89.6001   16.3089 C.ar    1  UNL1        0.0015
      4 C          63.0906   88.3953   15.4564 C.ar    1  UNL1        0.0001
      5 C          63.5512   88.3693   14.0291 C.ar    1  UNL1        0.0014
      6 C          64.2790   89.5482   13.4544 C.ar    1  UNL1        0.0191
      7 C          66.6122   92.7021   15.9142 C.3     1  UNL1        0.0522
      8 C          66.2237   92.8278   14.4708 C.ar    1  UNL1        0.0625
      9 C          66.7167   93.8715   13.5129 C.ar    1  UNL1        0.0402
     10 C          66.0717   93.6207   12.1819 C.ar    1  UNL1        0.1553
     11 N          65.1803   92.4221   12.3174 N.ar    1  UNL1       -0.1608
     12 N          65.2742   91.9320   13.7320 N.ar    1  UNL1       -0.2336
     13 C          66.2815   94.4271   10.9346 C.2     1  UNL1        0.2623
     14 N          65.1790   95.2991   10.4110 N.am    1  UNL1       -0.3240
     15 O          67.5937   94.3614   10.2110 O.2     1  UNL1       -0.2687
     16 H          64.3178   95.3422   10.8860 H       1  UNL1        0.1453
     17 H          65.3167   95.8283    9.5923 H       1  UNL1        0.1453
     18 C          63.2838   87.1644   13.1766 C.ar    1  UNL1        0.0039
     19 C          62.7153   87.3318   11.7987 C.ar    1  UNL1        0.0038
     20 C          62.4480   86.1269   10.9462 C.ar    1  UNL1        0.0714
     21 C          62.7492   84.7546   11.4716 C.ar    1  UNL1        0.0038
     22 C          63.3177   84.5872   12.8495 C.ar    1  UNL1        0.0038
     23 C          63.5851   85.7921   13.7020 C.ar    1  UNL1        0.0714
     24 C          61.8794   86.2943    9.5682 C.3     1  UNL1        0.4186
     25 F          61.3109   86.4618    8.1903 F       1  UNL1       -0.1659
     26 F          60.5619   86.6979   10.1608 F       1  UNL1       -0.1659
     27 F          63.1969   85.8908    8.9756 F       1  UNL1       -0.1659
     28 C          64.1536   85.6247   15.0800 C.3     1  UNL1        0.4186
     29 F          64.7221   85.4572   16.4579 F       1  UNL1       -0.1659
     30 F          65.4854   86.1102   14.5895 F       1  UNL1       -0.1659
     31 F          62.8219   85.1392   15.5704 F       1  UNL1       -0.1659
@<TRIPOS>BOND
     1     7     8    1
     2     8     9   ar
     3     9    10   ar
     4    10    13    1
     5    13    14   am
     6    13    15    2
     7    10    11   ar
     8    11    12   ar
     9    12     1    1
    10     1     2   ar
    11     2     3   ar
    12     3     4   ar
    13     4     5   ar
    14     5    18    1
    15    18    19   ar
    16    19    20   ar
    17    20    24    1
    18    24    25    1
    19    24    26    1
    20    24    27    1
    21    20    21   ar
    22    21    22   ar
    23    22    23   ar
    24    23    28    1
    25    28    29    1
    26    28    30    1
    27    28    31    1
    28     5     6   ar
    29    12     8   ar
    30     6     1   ar
    31    23    18   ar
    32    14    16    1
    33    14    17    1
