@<TRIPOS>MOLECULE
*****
 32 36 0 0 0
SMALL
GASTEIGER

@<TRIPOS>ATOM
      1 N          64.3353   91.4718   12.3344 N.am    1  UNL1       -0.2723
      2 C          65.3834   92.5245   12.5420 C.2     1  UNL1        0.2685
      3 O          65.6673   93.5239   11.4599 O.2     1  UNL1       -0.2682
      4 C          62.8937   86.3976   17.8285 C.3     1  UNL1        0.0896
      5 N          63.1776   87.3969   16.7465 N.3     1  UNL1       -0.2715
      6 C          62.8984   88.8692   16.8107 C.3     1  UNL1        0.0722
      7 C          63.3388   89.4817   15.5142 C.3     1  UNL1        0.0190
      8 C          63.4384   90.7701   14.7526 C.3     1  UNL1        0.0213
      9 C          64.0514   90.4725   13.4164 C.3     1  UNL1        0.0761
     10 C          64.3306   89.0002   13.3520 C.3     1  UNL1        0.0213
     11 C          63.8902   88.3878   14.6486 C.3     1  UNL1        0.0190
     12 C          63.7906   87.0993   15.4102 C.3     1  UNL1        0.0722
     13 C          66.1477   92.5780   13.8316 C.ar    1  UNL1        0.1535
     14 C          67.6230   92.3594   13.9918 C.ar    1  UNL1        0.1012
     15 N          67.9578   92.5058   15.4467 N.ar    1  UNL1       -0.3057
     16 C          69.3216   92.3674   16.0558 C.3     1  UNL1        0.1321
     17 C          66.6895   92.8148   16.1855 C.ar    1  UNL1        0.1787
     18 N          65.5708   92.8594   15.1872 N.ar    1  UNL1       -0.2192
     19 C          63.5711   91.4184   11.0448 C.3     1  UNL1        0.1205
     20 C          62.4735   90.4120   10.8645 C.ar    1  UNL1        0.0008
     21 C          61.1366   90.6372   11.5066 C.ar    1  UNL1       -0.0001
     22 C          60.0390   89.6309   11.3264 C.ar    1  UNL1        0.0325
     23 C          60.2782   88.3993   10.5041 C.ar    1  UNL1        0.1738
     24 F          59.1806   87.3929   10.3238 F       1  UNL1       -0.2010
     25 C          61.6150   88.1741    9.8621 C.ar    1  UNL1        0.1653
     26 C          62.7126   89.1805   10.0423 C.ar    1  UNL1        0.0366
     27 O          61.8542   86.9426    9.0398 O.3     1  UNL1       -0.4769
     28 C          62.4448   85.7192    9.6758 C.3     1  UNL1        0.1660
     29 C          63.2972   84.6930    8.9897 C.3     1  UNL1        0.0435
     30 C          63.6659   83.6468    9.9995 C.3     1  UNL1        0.0038
     31 C          63.0414   84.0263   11.3094 C.3     1  UNL1        0.0038
     32 C          62.2867   85.3071   11.1094 C.3     1  UNL1        0.0435
@<TRIPOS>BOND
     1     4     5    1
     2     5     6    1
     3     7     6    1
     4     7     8    1
     5     8     9    1
     6     9     1    1
     7     1    19    1
     8    19    20    1
     9    20    21   ar
    10    21    22   ar
    11    22    23   ar
    12    23    24    1
    13    23    25   ar
    14    25    27    1
    15    27    28    1
    16    28    29    1
    17    29    30    1
    18    30    31    1
    19    31    32    1
    20    25    26   ar
    21     1     2   am
    22     2     3    2
    23     2    13    1
    24    13    14   ar
    25    14    15   ar
    26    15    16    1
    27    15    17   ar
    28    17    18   ar
    29     9    10    1
    30    11    10    1
    31    11    12    1
    32    12     5    1
    33    11     7    1
    34    26    20   ar
    35    18    13   ar
    36    32    28    1
@<TRIPOS>MOLECULE
*****
 32 36 0 0 0
SMALL
GASTEIGER

@<TRIPOS>ATOM
      1 N          64.1684   90.5184   14.2899 N.am    1  UNL1       -0.2723
      2 C          65.3376   91.4367   14.0906 C.2     1  UNL1        0.2685
      3 O          66.1678   91.8598   15.2661 O.2     1  UNL1       -0.2682
      4 C          59.9527   88.3702    8.3213 C.3     1  UNL1        0.0896
      5 N          60.7829   88.7932    9.4968 N.3     1  UNL1       -0.2715
      6 C          61.9697   88.0597   10.0477 C.3     1  UNL1        0.0722
      7 C          62.4924   88.8373   11.2191 C.3     1  UNL1        0.0190
      8 C          63.5489   88.8645   12.2836 C.3     1  UNL1        0.0213
      9 C          63.3382   90.0954   13.1144 C.3     1  UNL1        0.0761
     10 C          62.1515   90.8289   12.5636 C.3     1  UNL1        0.0213
     11 C          61.6287   90.0514   11.3922 C.3     1  UNL1        0.0190
     12 C          60.5722   90.0242   10.3277 C.3     1  UNL1        0.0722
     13 C          65.6766   91.9319   12.7159 C.ar    1  UNL1        0.1535
     14 C          67.0454   91.9647   12.1032 C.ar    1  UNL1        0.1012
     15 N          66.9210   92.5343   10.7211 N.ar    1  UNL1       -0.3057
     16 C          68.0450   92.7473    9.7509 C.3     1  UNL1        0.1321
     17 C          65.4754   92.8535   10.4797 C.ar    1  UNL1        0.1787
     18 N          64.7064   92.4812   11.7125 N.ar    1  UNL1       -0.2192
     19 C          63.8295   90.0233   15.6646 C.3     1  UNL1        0.1205
     20 C          63.6495   88.5544   15.9095 C.ar    1  UNL1        0.0008
     21 C          62.8122   88.0831   17.0615 C.ar    1  UNL1       -0.0001
     22 C          62.6322   86.6143   17.3064 C.ar    1  UNL1        0.0325
     23 C          63.2895   85.6166   16.3993 C.ar    1  UNL1        0.1738
     24 F          63.1095   84.1477   16.6441 F       1  UNL1       -0.2010
     25 C          64.1266   86.0879   15.2473 C.ar    1  UNL1        0.1653
     26 C          64.3066   87.5567   15.0024 C.ar    1  UNL1        0.0366
     27 O          64.7838   85.0902   14.3403 O.3     1  UNL1       -0.4769
     28 C          64.0528   84.5764   13.1355 C.3     1  UNL1        0.1660
     29 C          64.3750   83.3231   12.3768 C.3     1  UNL1        0.0435
     30 C          63.3925   83.1977   11.2503 C.3     1  UNL1        0.0038
     31 C          62.4630   84.3734   11.3128 C.3     1  UNL1        0.0038
     32 C          62.8711   85.2254   12.4779 C.3     1  UNL1        0.0435
@<TRIPOS>BOND
     1     4     5    1
     2     5     6    1
     3     7     6    1
     4     7     8    1
     5     8     9    1
     6     9     1    1
     7     1    19    1
     8    19    20    1
     9    20    21   ar
    10    21    22   ar
    11    22    23   ar
    12    23    24    1
    13    23    25   ar
    14    25    27    1
    15    27    28    1
    16    28    29    1
    17    29    30    1
    18    30    31    1
    19    31    32    1
    20    25    26   ar
    21     1     2   am
    22     2     3    2
    23     2    13    1
    24    13    14   ar
    25    14    15   ar
    26    15    16    1
    27    15    17   ar
    28    17    18   ar
    29     9    10    1
    30    11    10    1
    31    11    12    1
    32    12     5    1
    33    11     7    1
    34    26    20   ar
    35    18    13   ar
    36    32    28    1
@<TRIPOS>MOLECULE
*****
 32 36 0 0 0
SMALL
GASTEIGER

@<TRIPOS>ATOM
      1 N          64.1798   84.5878   14.0416 N.am    1  UNL1       -0.2723
      2 C          63.9344   83.3274   14.8170 C.2     1  UNL1        0.2685
      3 O          64.5643   83.1418   16.1656 O.2     1  UNL1       -0.2682
      4 C          60.9811   85.5301    7.1939 C.3     1  UNL1        0.0896
      5 N          61.6111   85.3445    8.5425 N.3     1  UNL1       -0.2715
      6 C          61.1352   85.9516    9.8290 C.3     1  UNL1        0.0722
      7 C          62.0575   85.5015   10.9230 C.3     1  UNL1        0.0190
      8 C          62.3335   85.5985   12.3942 C.3     1  UNL1        0.0213
      9 C          63.5498   84.7733   12.6930 C.3     1  UNL1        0.0761
     10 C          64.0257   84.1663   11.4066 C.3     1  UNL1        0.0213
     11 C          63.1034   84.6163   10.3126 C.3     1  UNL1        0.0190
     12 C          62.8275   84.5193    8.8414 C.3     1  UNL1        0.0722
     13 C          63.0590   82.2526   14.2438 C.ar    1  UNL1        0.1535
     14 C          61.6418   81.9641   14.6418 C.ar    1  UNL1        0.1012
     15 N          61.1541   80.8108   13.8159 N.ar    1  UNL1       -0.3057
     16 C          59.7901   80.1906   13.8861 C.3     1  UNL1        0.1321
     17 C          62.2698   80.3865   12.9076 C.ar    1  UNL1        0.1787
     18 N          63.4471   81.2776   13.1721 N.ar    1  UNL1       -0.2192
     19 C          65.0551   85.6625   14.6148 C.3     1  UNL1        0.1205
     20 C          64.4408   86.9120   15.1729 C.ar    1  UNL1        0.0008
     21 C          63.6795   86.8613   16.4644 C.ar    1  UNL1       -0.0001
     22 C          63.0652   88.1107   17.0224 C.ar    1  UNL1        0.0325
     23 C          63.2122   89.4109   16.2889 C.ar    1  UNL1        0.1738
     24 F          62.5978   90.6604   16.8470 F       1  UNL1       -0.2010
     25 C          63.9734   89.4616   14.9975 C.ar    1  UNL1        0.1653
     26 C          64.5877   88.2121   14.4394 C.ar    1  UNL1        0.0366
     27 O          64.1203   90.7618   14.2640 O.3     1  UNL1       -0.4769
     28 C          63.7414   90.8528   12.8155 C.3     1  UNL1        0.1660
     29 C          62.6272   90.1034   12.1469 C.3     1  UNL1        0.0435
     30 C          62.6074   90.4966   10.6994 C.3     1  UNL1        0.0038
     31 C          63.7093   91.4889   10.4735 C.3     1  UNL1        0.0038
     32 C          64.4102   91.7090   11.7814 C.3     1  UNL1        0.0435
@<TRIPOS>BOND
     1     4     5    1
     2     5     6    1
     3     7     6    1
     4     7     8    1
     5     8     9    1
     6     9     1    1
     7     1    19    1
     8    19    20    1
     9    20    21   ar
    10    21    22   ar
    11    22    23   ar
    12    23    24    1
    13    23    25   ar
    14    25    27    1
    15    27    28    1
    16    28    29    1
    17    29    30    1
    18    30    31    1
    19    31    32    1
    20    25    26   ar
    21     1     2   am
    22     2     3    2
    23     2    13    1
    24    13    14   ar
    25    14    15   ar
    26    15    16    1
    27    15    17   ar
    28    17    18   ar
    29     9    10    1
    30    11    10    1
    31    11    12    1
    32    12     5    1
    33    11     7    1
    34    26    20   ar
    35    18    13   ar
    36    32    28    1
@<TRIPOS>MOLECULE
*****
 32 36 0 0 0
SMALL
GASTEIGER

@<TRIPOS>ATOM
      1 N          64.2312   84.5073   14.0156 N.am    1  UNL1       -0.2723
      2 C          64.0347   83.1950   14.7150 C.2     1  UNL1        0.2685
      3 O          64.6836   82.9493   16.0449 O.2     1  UNL1       -0.2682
      4 C          60.9364   85.7548    7.2630 C.3     1  UNL1        0.0896
      5 N          61.5853   85.5091    8.5928 N.3     1  UNL1       -0.2715
      6 C          61.1172   86.0426    9.9143 C.3     1  UNL1        0.0722
      7 C          62.0588   85.5500   10.9729 C.3     1  UNL1        0.0190
      8 C          62.3515   85.5753   12.4439 C.3     1  UNL1        0.0213
      9 C          63.5824   84.7529   12.6858 C.3     1  UNL1        0.0761
     10 C          64.0505   84.2194   11.3644 C.3     1  UNL1        0.0213
     11 C          63.1089   84.7120   10.3058 C.3     1  UNL1        0.0190
     12 C          62.8162   84.6867    8.8348 C.3     1  UNL1        0.0722
     13 C          63.1893   82.1283   14.0846 C.ar    1  UNL1        0.1535
     14 C          63.6381   81.1505   13.0393 C.ar    1  UNL1        0.1012
     15 N          62.4727   80.2701   12.6974 N.ar    1  UNL1       -0.3057
     16 C          62.4758   79.1522   11.6972 C.3     1  UNL1        0.1321
     17 C          61.3038   80.7037   13.5314 C.ar    1  UNL1        0.1787
     18 N          61.7467   81.8521   14.3887 N.ar    1  UNL1       -0.2192
     19 C          65.0767   85.5739   14.6461 C.3     1  UNL1        0.1205
     20 C          64.4310   86.7963   15.2283 C.ar    1  UNL1        0.0008
     21 C          63.5787   86.6811   16.4573 C.ar    1  UNL1       -0.0001
     22 C          62.9330   87.9035   17.0394 C.ar    1  UNL1        0.0325
     23 C          63.1397   89.2410   16.3926 C.ar    1  UNL1        0.1738
     24 F          62.4941   90.4634   16.9747 F       1  UNL1       -0.2010
     25 C          63.9920   89.3561   15.1637 C.ar    1  UNL1        0.1653
     26 C          64.6377   88.1338   14.5815 C.ar    1  UNL1        0.0366
     27 O          64.1986   90.6936   14.5169 O.3     1  UNL1       -0.4769
     28 C          65.4365   91.4871   14.8137 C.3     1  UNL1        0.1660
     29 C          66.6477   91.5931   13.9350 C.3     1  UNL1        0.0435
     30 C          67.6403   92.4854   14.6197 C.3     1  UNL1        0.0038
     31 C          67.0427   92.9307   15.9214 C.3     1  UNL1        0.0038
     32 C          65.6807   92.3137   16.0413 C.3     1  UNL1        0.0435
@<TRIPOS>BOND
     1     4     5    1
     2     5     6    1
     3     7     6    1
     4     7     8    1
     5     8     9    1
     6     9     1    1
     7     1    19    1
     8    19    20    1
     9    20    21   ar
    10    21    22   ar
    11    22    23   ar
    12    23    24    1
    13    23    25   ar
    14    25    27    1
    15    27    28    1
    16    28    29    1
    17    29    30    1
    18    30    31    1
    19    31    32    1
    20    25    26   ar
    21     1     2   am
    22     2     3    2
    23     2    13    1
    24    13    14   ar
    25    14    15   ar
    26    15    16    1
    27    15    17   ar
    28    17    18   ar
    29     9    10    1
    30    11    10    1
    31    11    12    1
    32    12     5    1
    33    11     7    1
    34    26    20   ar
    35    18    13   ar
    36    32    28    1
@<TRIPOS>MOLECULE
*****
 32 36 0 0 0
SMALL
GASTEIGER

@<TRIPOS>ATOM
      1 N          62.1267   87.9326   11.3127 N.am    1  UNL1       -0.2723
      2 C          61.9027   88.1284    9.8426 C.2     1  UNL1        0.2685
      3 O          61.5333   89.4827    9.3141 O.2     1  UNL1       -0.2682
      4 C          64.0024   81.0557   13.9964 C.3     1  UNL1        0.0896
      5 N          63.6330   82.4100   13.4679 N.3     1  UNL1       -0.2715
      6 C          62.6147   82.6935   12.4036 C.3     1  UNL1        0.0722
      7 C          62.5694   84.1774   12.1888 C.3     1  UNL1        0.0190
      8 C          61.9121   85.2696   11.3983 C.3     1  UNL1        0.0213
      9 C          62.4961   86.5782   11.8413 C.3     1  UNL1        0.0761
     10 C          63.5144   86.2948   12.9055 C.3     1  UNL1        0.0213
     11 C          63.5597   84.8110   13.1203 C.3     1  UNL1        0.0190
     12 C          64.2170   83.7187   13.9108 C.3     1  UNL1        0.0722
     13 C          62.0481   86.9699    8.9009 C.ar    1  UNL1        0.1535
     14 C          60.9755   86.4191    8.0086 C.ar    1  UNL1        0.1012
     15 N          61.5561   85.2676    7.2424 N.ar    1  UNL1       -0.3057
     16 C          60.8324   84.4248    6.2344 C.3     1  UNL1        0.1321
     17 C          62.9874   85.1068    7.6612 C.ar    1  UNL1        0.1787
     18 N          63.2914   86.1589    8.6862 N.ar    1  UNL1       -0.2192
     19 C          61.9814   89.0910   12.2544 C.3     1  UNL1        0.1205
     20 C          63.1683   89.9503   12.5752 C.ar    1  UNL1        0.0008
     21 C          63.9890   89.6690   13.7989 C.ar    1  UNL1       -0.0001
     22 C          65.1759   90.5282   14.1198 C.ar    1  UNL1        0.0325
     23 C          65.5421   91.6688   13.2169 C.ar    1  UNL1        0.1738
     24 F          66.7290   92.5280   13.5377 F       1  UNL1       -0.2010
     25 C          64.7214   91.9500   11.9933 C.ar    1  UNL1        0.1653
     26 C          63.5345   91.0908   11.6724 C.ar    1  UNL1        0.0366
     27 O          65.0877   93.0905   11.0905 O.3     1  UNL1       -0.4769
     28 C          66.4017   93.0824   10.3671 C.3     1  UNL1        0.1660
     29 C          66.9229   94.1686    9.4734 C.3     1  UNL1        0.0435
     30 C          68.2685   93.7440    8.9643 C.3     1  UNL1        0.0038
     31 C          68.5789   92.3956    9.5433 C.3     1  UNL1        0.0038
     32 C          67.4251   91.9866   10.4103 C.3     1  UNL1        0.0435
@<TRIPOS>BOND
     1     4     5    1
     2     5     6    1
     3     7     6    1
     4     7     8    1
     5     8     9    1
     6     9     1    1
     7     1    19    1
     8    19    20    1
     9    20    21   ar
    10    21    22   ar
    11    22    23   ar
    12    23    24    1
    13    23    25   ar
    14    25    27    1
    15    27    28    1
    16    28    29    1
    17    29    30    1
    18    30    31    1
    19    31    32    1
    20    25    26   ar
    21     1     2   am
    22     2     3    2
    23     2    13    1
    24    13    14   ar
    25    14    15   ar
    26    15    16    1
    27    15    17   ar
    28    17    18   ar
    29     9    10    1
    30    11    10    1
    31    11    12    1
    32    12     5    1
    33    11     7    1
    34    26    20   ar
    35    18    13   ar
    36    32    28    1
@<TRIPOS>MOLECULE
*****
 32 36 0 0 0
SMALL
GASTEIGER

@<TRIPOS>ATOM
      1 N          62.0340   87.3625   10.5103 N.am    1  UNL1       -0.2723
      2 C          60.5572   87.5284   10.3071 C.2     1  UNL1        0.2685
      3 O          59.8242   86.6252    9.3600 O.2     1  UNL1       -0.2682
      4 C          65.7557   91.9491   15.3190 C.3     1  UNL1        0.0896
      5 N          65.0227   91.0458   14.3720 N.3     1  UNL1       -0.2715
      6 C          64.7069   89.5975   14.6013 C.3     1  UNL1        0.0722
      7 C          63.9659   89.0888   13.4004 C.3     1  UNL1        0.0190
      8 C          63.3128   87.8793   12.7999 C.3     1  UNL1        0.0213
      9 C          62.7670   88.2658   11.4573 C.3     1  UNL1        0.0761
     10 C          63.0827   89.7141   11.2279 C.3     1  UNL1        0.0213
     11 C          63.8237   90.2228   12.4288 C.3     1  UNL1        0.0190
     12 C          64.4768   91.4322   13.0293 C.3     1  UNL1        0.0722
     13 C          59.8132   88.5977   11.0509 C.ar    1  UNL1        0.1535
     14 C          59.6523   90.0245   10.6169 C.ar    1  UNL1        0.1012
     15 N          58.8392   90.7365   11.6572 N.ar    1  UNL1       -0.3057
     16 C          58.4381   92.1815   11.6261 C.3     1  UNL1        0.1321
     17 C          58.4975   89.7496   12.7339 C.ar    1  UNL1        0.1787
     18 N          59.0995   88.4278   12.3592 N.ar    1  UNL1       -0.2192
     19 C          62.7779   86.2933    9.7664 C.3     1  UNL1        0.1205
     20 C          63.0315   84.9654   10.4164 C.ar    1  UNL1        0.0008
     21 C          63.6356   83.8451    9.6226 C.ar    1  UNL1       -0.0001
     22 C          63.8892   82.5172   10.2726 C.ar    1  UNL1        0.0325
     23 C          63.5388   82.3097   11.7163 C.ar    1  UNL1        0.1738
     24 F          63.7924   80.9818   12.3662 F       1  UNL1       -0.2010
     25 C          62.9347   83.4300   12.5099 C.ar    1  UNL1        0.1653
     26 C          62.6811   84.7579   11.8600 C.ar    1  UNL1        0.0366
     27 O          62.5843   83.2224   13.9536 O.3     1  UNL1       -0.4769
     28 C          62.9169   84.2786   14.9654 C.3     1  UNL1        0.1660
     29 C          64.2028   85.0466   15.0482 C.3     1  UNL1        0.0435
     30 C          64.1026   85.9948   16.2062 C.3     1  UNL1        0.0038
     31 C          62.7549   85.8130   16.8390 C.3     1  UNL1        0.0038
     32 C          62.0221   84.7523   16.0722 C.3     1  UNL1        0.0435
@<TRIPOS>BOND
     1     4     5    1
     2     5     6    1
     3     7     6    1
     4     7     8    1
     5     8     9    1
     6     9     1    1
     7     1    19    1
     8    19    20    1
     9    20    21   ar
    10    21    22   ar
    11    22    23   ar
    12    23    24    1
    13    23    25   ar
    14    25    27    1
    15    27    28    1
    16    28    29    1
    17    29    30    1
    18    30    31    1
    19    31    32    1
    20    25    26   ar
    21     1     2   am
    22     2     3    2
    23     2    13    1
    24    13    14   ar
    25    14    15   ar
    26    15    16    1
    27    15    17   ar
    28    17    18   ar
    29     9    10    1
    30    11    10    1
    31    11    12    1
    32    12     5    1
    33    11     7    1
    34    26    20   ar
    35    18    13   ar
    36    32    28    1
