@<TRIPOS>MOLECULE
*****
 29 32 0 0 0
SMALL
GASTEIGER

@<TRIPOS>ATOM
      1 C          62.1591   86.4208   10.7016 C.ar    1  UNL1        0.0525
      2 C          62.6868   85.6476    9.5294 C.ar    1  UNL1        0.0159
      3 C          61.9292   85.6381    8.2349 C.ar    1  UNL1        0.0579
      4 CL         62.4569   84.8650    7.0628 Cl      1  UNL1       -0.0822
      5 C          60.6440   86.4017    8.1123 C.ar    1  UNL1        0.0145
      6 C          60.1163   87.1749    9.2844 C.ar    1  UNL1        0.0378
      7 C          60.8739   87.1844   10.5789 C.ar    1  UNL1        0.1405
      8 N          63.4238   85.2242   12.7298 N.ar    1  UNL1       -0.2877
      9 C          64.1207   85.6961   13.9715 C.ar    1  UNL1        0.1828
     10 N          64.0442   87.1937   14.0052 N.ar    1  UNL1       -0.2221
     11 C          63.3000   87.6475   12.7844 C.ar    1  UNL1        0.1182
     12 C          62.9166   86.4303   11.9961 C.ar    1  UNL1        0.0874
     13 C          62.3782   81.3958   12.7484 C.ar    1  UNL1        0.0154
     14 C          62.9397   80.9423   11.4335 C.ar    1  UNL1        0.0012
     15 C          63.6626   81.9160   10.5507 C.ar    1  UNL1        0.0015
     16 C          63.8239   83.3433   10.9828 C.ar    1  UNL1        0.0176
     17 C          63.2624   83.7969   12.2976 C.ar    1  UNL1        0.0655
     18 C          62.5396   82.8231   13.1804 C.ar    1  UNL1        0.0187
     19 O          60.3720   80.8226   14.2964 O.co2   1  UNL1       -0.5446
     20 C          61.6553   80.4221   13.6312 C.2     1  UNL1        0.0729
     21 O          62.2158   79.0479   13.8488 O.co2   1  UNL1       -0.5446
     22 O          60.3461   87.9576   11.7511 O.3     1  UNL1       -0.4706
     23 C          60.3495   89.4572   11.7232 C.3     1  UNL1        0.2320
     24 C          61.6374   90.2008   11.5269 C.ar    1  UNL1        0.0212
     25 C          62.0738   90.5936   10.1465 C.ar    1  UNL1       -0.0007
     26 C          63.3617   91.3372    9.9503 C.ar    1  UNL1       -0.0002
     27 C          64.2131   91.6880   11.1343 C.ar    1  UNL1       -0.0000
     28 C          63.7767   91.2952   12.5147 C.ar    1  UNL1       -0.0002
     29 C          62.4888   90.5516   12.7109 C.ar    1  UNL1       -0.0007
@<TRIPOS>UNITY_ATOM_ATTR
19 1
charge -1
@<TRIPOS>BOND
     1    19    20   ar
     2    20    21   ar
     3    20    13    1
     4    13    14   ar
     5    14    15   ar
     6    15    16   ar
     7    16    17   ar
     8    17     8    1
     9     8     9   ar
    10     9    10   ar
    11    10    11   ar
    12    11    12   ar
    13    12     1    1
    14     1     2   ar
    15     2     3   ar
    16     3     4    1
    17     3     5   ar
    18     5     6   ar
    19     6     7   ar
    20     7    22    1
    21    22    23    1
    22    23    24    1
    23    24    25   ar
    24    25    26   ar
    25    26    27   ar
    26    27    28   ar
    27    28    29   ar
    28    17    18   ar
    29    18    13   ar
    30    12     8   ar
    31     7     1   ar
    32    29    24   ar
@<TRIPOS>MOLECULE
*****
 29 32 0 0 0
SMALL
GASTEIGER

@<TRIPOS>ATOM
      1 C          64.3999   90.7776   13.2061 C.ar    1  UNL1        0.0525
      2 C          63.8644   91.3537   11.9287 C.ar    1  UNL1        0.0159
      3 C          63.0461   90.4999   11.0061 C.ar    1  UNL1        0.0579
      4 CL         62.5106   91.0759    9.7288 Cl      1  UNL1       -0.0822
      5 C          62.7631   89.0701   11.3606 C.ar    1  UNL1        0.0145
      6 C          63.2986   88.4941   12.6379 C.ar    1  UNL1        0.0378
      7 C          64.1170   89.3479   13.5606 C.ar    1  UNL1        0.1405
      8 N          66.2770   92.6108   13.7168 N.ar    1  UNL1       -0.2877
      9 C          66.8347   93.2403   14.9589 C.ar    1  UNL1        0.1828
     10 N          66.1205   92.6501   16.1385 N.ar    1  UNL1       -0.2221
     11 C          65.1215   91.6556   15.6254 C.ar    1  UNL1        0.1182
     12 C          65.2183   91.6314   14.1287 C.ar    1  UNL1        0.0874
     13 C          66.6963   94.4807   10.2415 C.ar    1  UNL1        0.0154
     14 C          67.5561   93.5037    9.4958 C.ar    1  UNL1        0.0012
     15 C          67.9895   92.2290   10.1571 C.ar    1  UNL1        0.0015
     16 C          67.5632   91.9314   11.5640 C.ar    1  UNL1        0.0176
     17 C          66.7034   92.9084   12.3097 C.ar    1  UNL1        0.0655
     18 C          66.2700   94.1831   11.6485 C.ar    1  UNL1        0.0187
     19 O          64.9355   96.3643    9.9227 O.co2   1  UNL1       -0.5446
     20 C          66.2628   95.7554    9.5802 C.2     1  UNL1        0.0729
     21 O          67.1568   96.4213    8.5765 O.co2   1  UNL1       -0.5446
     22 O          64.6524   88.7718   14.8379 O.3     1  UNL1       -0.4706
     23 C          63.8052   87.8415   15.6543 C.3     1  UNL1        0.2320
     24 C          63.8687   86.3624   15.4128 C.ar    1  UNL1        0.0212
     25 C          62.8436   85.4571   16.0289 C.ar    1  UNL1       -0.0007
     26 C          62.9071   83.9781   15.7873 C.ar    1  UNL1       -0.0002
     27 C          63.9958   83.4043   14.9297 C.ar    1  UNL1       -0.0000
     28 C          65.0209   84.3096   14.3136 C.ar    1  UNL1       -0.0002
     29 C          64.9574   85.7886   14.5551 C.ar    1  UNL1       -0.0007
@<TRIPOS>UNITY_ATOM_ATTR
19 1
charge -1
@<TRIPOS>BOND
     1    19    20   ar
     2    20    21   ar
     3    20    13    1
     4    13    14   ar
     5    14    15   ar
     6    15    16   ar
     7    16    17   ar
     8    17     8    1
     9     8     9   ar
    10     9    10   ar
    11    10    11   ar
    12    11    12   ar
    13    12     1    1
    14     1     2   ar
    15     2     3   ar
    16     3     4    1
    17     3     5   ar
    18     5     6   ar
    19     6     7   ar
    20     7    22    1
    21    22    23    1
    22    23    24    1
    23    24    25   ar
    24    25    26   ar
    25    26    27   ar
    26    27    28   ar
    27    28    29   ar
    28    17    18   ar
    29    18    13   ar
    30    12     8   ar
    31     7     1   ar
    32    29    24   ar
@<TRIPOS>MOLECULE
*****
 29 32 0 0 0
SMALL
GASTEIGER

@<TRIPOS>ATOM
      1 C          63.2345   89.2026   12.0427 C.ar    1  UNL1        0.0525
      2 C          64.1349   90.3887   11.8615 C.ar    1  UNL1        0.0159
      3 C          63.8012   91.4343   10.8391 C.ar    1  UNL1        0.0579
      4 CL         64.7014   92.6203   10.6580 Cl      1  UNL1       -0.0822
      5 C          62.5672   91.2939    9.9979 C.ar    1  UNL1        0.0145
      6 C          61.6670   90.1079   10.1790 C.ar    1  UNL1        0.0378
      7 C          62.0007   89.0623   11.2014 C.ar    1  UNL1        0.1405
      8 N          64.1455   88.4077   14.4266 N.ar    1  UNL1       -0.2877
      9 C          64.3173   87.0827   15.1084 C.ar    1  UNL1        0.1828
     10 N          63.8462   86.0130   14.1682 N.ar    1  UNL1       -0.2221
     11 C          63.3833   86.6770   12.9053 C.ar    1  UNL1        0.1182
     12 C          63.5682   88.1570   13.0651 C.ar    1  UNL1        0.0874
     13 C          66.0552   91.8196   15.1062 C.ar    1  UNL1        0.0154
     14 C          65.1803   92.4288   16.1614 C.ar    1  UNL1        0.0012
     15 C          63.9605   91.6976   16.6384 C.ar    1  UNL1        0.0015
     16 C          63.6156   90.3573   16.0601 C.ar    1  UNL1        0.0176
     17 C          64.4904   89.7481   15.0049 C.ar    1  UNL1        0.0655
     18 C          65.7102   90.4793   14.5280 C.ar    1  UNL1        0.0187
     19 O          67.9666   93.5263   15.5348 O.co2   1  UNL1       -0.5446
     20 C          67.2750   92.5508   14.6293 C.2     1  UNL1        0.0729
     21 O          67.8031   92.3065   13.2468 O.co2   1  UNL1       -0.5446
     22 O          61.1003   87.8762   11.3825 O.3     1  UNL1       -0.4706
     23 C          60.3204   87.3418   10.2181 C.3     1  UNL1        0.2320
     24 C          61.0053   86.5083    9.1757 C.ar    1  UNL1        0.0212
     25 C          60.2784   86.1339    7.9181 C.ar    1  UNL1       -0.0007
     26 C          60.9633   85.3005    6.8759 C.ar    1  UNL1       -0.0002
     27 C          62.3750   84.8415    7.0912 C.ar    1  UNL1       -0.0000
     28 C          63.1018   85.2159    8.3488 C.ar    1  UNL1       -0.0002
     29 C          62.4170   86.0493    9.3910 C.ar    1  UNL1       -0.0007
@<TRIPOS>UNITY_ATOM_ATTR
19 1
charge -1
@<TRIPOS>BOND
     1    19    20   ar
     2    20    21   ar
     3    20    13    1
     4    13    14   ar
     5    14    15   ar
     6    15    16   ar
     7    16    17   ar
     8    17     8    1
     9     8     9   ar
    10     9    10   ar
    11    10    11   ar
    12    11    12   ar
    13    12     1    1
    14     1     2   ar
    15     2     3   ar
    16     3     4    1
    17     3     5   ar
    18     5     6   ar
    19     6     7   ar
    20     7    22    1
    21    22    23    1
    22    23    24    1
    23    24    25   ar
    24    25    26   ar
    25    26    27   ar
    26    27    28   ar
    27    28    29   ar
    28    17    18   ar
    29    18    13   ar
    30    12     8   ar
    31     7     1   ar
    32    29    24   ar
@<TRIPOS>MOLECULE
*****
 29 32 0 0 0
SMALL
GASTEIGER

@<TRIPOS>ATOM
      1 C          63.0199   87.1864   12.3707 C.ar    1  UNL1        0.0525
      2 C          63.4129   85.9913   13.1876 C.ar    1  UNL1        0.0159
      3 C          64.1897   86.1736   14.4577 C.ar    1  UNL1        0.0579
      4 CL         64.5827   84.9786   15.2747 Cl      1  UNL1       -0.0822
      5 C          64.5736   87.5511   14.9111 C.ar    1  UNL1        0.0145
      6 C          64.1806   88.7461   14.0941 C.ar    1  UNL1        0.0378
      7 C          63.4038   88.5638   12.8240 C.ar    1  UNL1        0.1405
      8 N          62.1119   85.7283   10.3227 N.ar    1  UNL1       -0.2877
      9 C          61.2487   86.0013    9.1267 C.ar    1  UNL1        0.1828
     10 N          60.8465   87.4458    9.1653 N.ar    1  UNL1       -0.2221
     11 C          61.4610   88.0656   10.3853 C.ar    1  UNL1        0.1182
     12 C          62.2431   87.0041   11.1006 C.ar    1  UNL1        0.0874
     13 C          62.9041   82.3562   12.2596 C.ar    1  UNL1        0.0154
     14 C          63.9796   81.7757   11.3899 C.ar    1  UNL1        0.0012
     15 C          64.4325   82.5128   10.1645 C.ar    1  UNL1        0.0015
     16 C          63.8100   83.8303    9.8088 C.ar    1  UNL1        0.0176
     17 C          62.7345   84.4107   10.6785 C.ar    1  UNL1        0.0655
     18 C          62.2816   83.6737   11.9039 C.ar    1  UNL1        0.0187
     19 O          62.5015   82.2905   14.8254 O.co2   1  UNL1       -0.5446
     20 C          62.4512   81.6192   13.4850 C.2     1  UNL1        0.0729
     21 O          61.9480   80.2108   13.3700 O.co2   1  UNL1       -0.5446
     22 O          63.0108   89.7589   12.0071 O.3     1  UNL1       -0.4706
     23 C          63.3236   91.1404   12.5005 C.3     1  UNL1        0.2320
     24 C          64.6198   91.7954   12.1251 C.ar    1  UNL1        0.0212
     25 C          64.8308   92.2938   10.7261 C.ar    1  UNL1       -0.0007
     26 C          66.1270   92.9487   10.3508 C.ar    1  UNL1       -0.0002
     27 C          67.2122   93.1053   11.3744 C.ar    1  UNL1       -0.0000
     28 C          67.0012   92.6069   12.7734 C.ar    1  UNL1       -0.0002
     29 C          65.7050   91.9519   13.1487 C.ar    1  UNL1       -0.0007
@<TRIPOS>UNITY_ATOM_ATTR
19 1
charge -1
@<TRIPOS>BOND
     1    19    20   ar
     2    20    21   ar
     3    20    13    1
     4    13    14   ar
     5    14    15   ar
     6    15    16   ar
     7    16    17   ar
     8    17     8    1
     9     8     9   ar
    10     9    10   ar
    11    10    11   ar
    12    11    12   ar
    13    12     1    1
    14     1     2   ar
    15     2     3   ar
    16     3     4    1
    17     3     5   ar
    18     5     6   ar
    19     6     7   ar
    20     7    22    1
    21    22    23    1
    22    23    24    1
    23    24    25   ar
    24    25    26   ar
    25    26    27   ar
    26    27    28   ar
    27    28    29   ar
    28    17    18   ar
    29    18    13   ar
    30    12     8   ar
    31     7     1   ar
    32    29    24   ar
@<TRIPOS>MOLECULE
*****
 29 32 0 0 0
SMALL
GASTEIGER

@<TRIPOS>ATOM
      1 C          63.3257   90.2073   13.1224 C.ar    1  UNL1        0.0525
      2 C          62.9029   89.7017   14.4700 C.ar    1  UNL1        0.0159
      3 C          63.5983   90.1900   15.7061 C.ar    1  UNL1        0.0579
      4 CL         63.1755   89.6845   17.0536 Cl      1  UNL1       -0.0822
      5 C          64.7164   91.1837   15.5949 C.ar    1  UNL1        0.0145
      6 C          65.1391   91.6893   14.2474 C.ar    1  UNL1        0.0378
      7 C          64.4437   91.2010   13.0112 C.ar    1  UNL1        0.1405
      8 N          62.4791   88.2868   11.4672 N.ar    1  UNL1       -0.2877
      9 C          61.7194   88.2600   10.1740 C.ar    1  UNL1        0.1828
     10 N          61.4011   89.6757    9.7939 N.ar    1  UNL1       -0.2221
     11 C          61.9642   90.5775   10.8522 C.ar    1  UNL1        0.1182
     12 C          62.6304   89.7191   11.8863 C.ar    1  UNL1        0.0874
     13 C          63.2534   84.5150   12.4287 C.ar    1  UNL1        0.0154
     14 C          64.0318   84.7000   13.6975 C.ar    1  UNL1        0.0012
     15 C          64.2926   86.0806   14.2229 C.ar    1  UNL1        0.0015
     16 C          63.7750   87.2762   13.4795 C.ar    1  UNL1        0.0176
     17 C          62.9967   87.0912   12.2107 C.ar    1  UNL1        0.0655
     18 C          62.7359   85.7106   11.6853 C.ar    1  UNL1        0.0187
     19 O          63.5262   82.7296   10.5611 O.co2   1  UNL1       -0.5446
     20 C          62.9926   83.1345   11.9033 C.2     1  UNL1        0.0729
     21 O          62.1982   82.1589   12.7200 O.co2   1  UNL1       -0.5446
     22 O          64.8665   91.7066   11.6637 O.3     1  UNL1       -0.4706
     23 C          65.5637   93.0292   11.5438 C.3     1  UNL1        0.2320
     24 C          66.5357   93.2662   10.4261 C.ar    1  UNL1        0.0212
     25 C          67.5771   92.2349   10.1065 C.ar    1  UNL1       -0.0007
     26 C          68.5491   92.4719    8.9889 C.ar    1  UNL1       -0.0002
     27 C          68.4796   93.7401    8.1908 C.ar    1  UNL1       -0.0000
     28 C          67.4382   94.7713    8.5104 C.ar    1  UNL1       -0.0002
     29 C          66.4663   94.5343    9.6280 C.ar    1  UNL1       -0.0007
@<TRIPOS>UNITY_ATOM_ATTR
19 1
charge -1
@<TRIPOS>BOND
     1    19    20   ar
     2    20    21   ar
     3    20    13    1
     4    13    14   ar
     5    14    15   ar
     6    15    16   ar
     7    16    17   ar
     8    17     8    1
     9     8     9   ar
    10     9    10   ar
    11    10    11   ar
    12    11    12   ar
    13    12     1    1
    14     1     2   ar
    15     2     3   ar
    16     3     4    1
    17     3     5   ar
    18     5     6   ar
    19     6     7   ar
    20     7    22    1
    21    22    23    1
    22    23    24    1
    23    24    25   ar
    24    25    26   ar
    25    26    27   ar
    26    27    28   ar
    27    28    29   ar
    28    17    18   ar
    29    18    13   ar
    30    12     8   ar
    31     7     1   ar
    32    29    24   ar
@<TRIPOS>MOLECULE
*****
 29 32 0 0 0
SMALL
GASTEIGER

@<TRIPOS>ATOM
      1 C          63.0750   90.0489   12.9384 C.ar    1  UNL1        0.0525
      2 C          62.6824   89.4352   14.2496 C.ar    1  UNL1        0.0159
      3 C          63.4611   89.7559   15.4909 C.ar    1  UNL1        0.0579
      4 CL         63.0686   89.1422   16.8021 Cl      1  UNL1       -0.0822
      5 C          64.6325   90.6903   15.4210 C.ar    1  UNL1        0.0145
      6 C          65.0250   91.3040   14.1098 C.ar    1  UNL1        0.0378
      7 C          64.2463   90.9833   12.8685 C.ar    1  UNL1        0.1405
      8 N          62.0570   88.3579   11.1359 N.ar    1  UNL1       -0.2877
      9 C          61.2328   88.5043    9.8911 C.ar    1  UNL1        0.1828
     10 N          60.9627   89.9651    9.6831 N.ar    1  UNL1       -0.2221
     11 C          61.6199   90.7215   10.7994 C.ar    1  UNL1        0.1182
     12 C          62.2962   89.7282   11.6972 C.ar    1  UNL1        0.0874
     13 C          63.8310   85.7836   13.5804 C.ar    1  UNL1        0.0154
     14 C          63.5496   84.4875   12.8798 C.ar    1  UNL1        0.0012
     15 C          62.7708   84.4815   11.5979 C.ar    1  UNL1        0.0015
     16 C          62.2732   85.7716   11.0166 C.ar    1  UNL1        0.0176
     17 C          62.5545   87.0677   11.7172 C.ar    1  UNL1        0.0655
     18 C          63.3334   87.0737   12.9991 C.ar    1  UNL1        0.0187
     19 O          63.8957   85.9370   16.1731 O.co2   1  UNL1       -0.5446
     20 C          64.6098   85.7896   14.8623 C.2     1  UNL1        0.0729
     21 O          66.1028   85.6481   14.8335 O.co2   1  UNL1       -0.5446
     22 O          64.6389   91.5970   11.5573 O.3     1  UNL1       -0.4706
     23 C          65.3723   92.9052   11.5312 C.3     1  UNL1        0.2320
     24 C          66.4235   93.1550   10.4907 C.ar    1  UNL1        0.0212
     25 C          67.4879   92.1287   10.2382 C.ar    1  UNL1       -0.0007
     26 C          68.5391   92.3786    9.1977 C.ar    1  UNL1       -0.0002
     27 C          68.5259   93.6549    8.4098 C.ar    1  UNL1       -0.0000
     28 C          67.4615   94.6813    8.6623 C.ar    1  UNL1       -0.0002
     29 C          66.4104   94.4313    9.7027 C.ar    1  UNL1       -0.0007
@<TRIPOS>UNITY_ATOM_ATTR
19 1
charge -1
@<TRIPOS>BOND
     1    19    20   ar
     2    20    21   ar
     3    20    13    1
     4    13    14   ar
     5    14    15   ar
     6    15    16   ar
     7    16    17   ar
     8    17     8    1
     9     8     9   ar
    10     9    10   ar
    11    10    11   ar
    12    11    12   ar
    13    12     1    1
    14     1     2   ar
    15     2     3   ar
    16     3     4    1
    17     3     5   ar
    18     5     6   ar
    19     6     7   ar
    20     7    22    1
    21    22    23    1
    22    23    24    1
    23    24    25   ar
    24    25    26   ar
    25    26    27   ar
    26    27    28   ar
    27    28    29   ar
    28    17    18   ar
    29    18    13   ar
    30    12     8   ar
    31     7     1   ar
    32    29    24   ar
@<TRIPOS>MOLECULE
*****
 29 32 0 0 0
SMALL
GASTEIGER

@<TRIPOS>ATOM
      1 C          60.7340   88.2016   10.6523 C.ar    1  UNL1        0.0525
      2 C          59.4954   87.8916   11.4397 C.ar    1  UNL1        0.0159
      3 C          58.8145   88.9742   12.2235 C.ar    1  UNL1        0.0579
      4 CL         57.5760   88.6643   13.0109 Cl      1  UNL1       -0.0822
      5 C          59.3721   90.3668   12.2200 C.ar    1  UNL1        0.0145
      6 C          60.6106   90.6767   11.4327 C.ar    1  UNL1        0.0378
      7 C          61.2915   89.5941   10.6489 C.ar    1  UNL1        0.1405
      8 N          62.3949   86.1213   10.4107 N.ar    1  UNL1       -0.2877
      9 C          62.8210   85.2298    9.2821 C.ar    1  UNL1        0.1828
     10 N          62.1043   85.6765    8.0425 N.ar    1  UNL1       -0.2221
     11 C          61.2353   86.8442    8.4049 C.ar    1  UNL1        0.1182
     12 C          61.4149   87.1191    9.8685 C.ar    1  UNL1        0.0874
     13 C          63.2562   84.6356   13.9885 C.ar    1  UNL1        0.0154
     14 C          63.8086   85.8499   14.6742 C.ar    1  UNL1        0.0012
     15 C          63.8898   87.1547   13.9388 C.ar    1  UNL1        0.0015
     16 C          63.4185   87.2452   12.5176 C.ar    1  UNL1        0.0176
     17 C          62.8662   86.0308   11.8319 C.ar    1  UNL1        0.0655
     18 C          62.7850   84.7260   12.5674 C.ar    1  UNL1        0.0187
     19 O          64.3168   82.8847   15.5883 O.co2   1  UNL1       -0.5446
     20 C          63.1750   83.3308   14.7240 C.2     1  UNL1        0.0729
     21 O          61.9519   82.4720   14.5951 O.co2   1  UNL1       -0.5446
     22 O          62.5301   89.9041    9.8615 O.3     1  UNL1       -0.4706
     23 C          63.1630   91.2602    9.9621 C.3     1  UNL1        0.2320
     24 C          64.1409   91.5518   11.0616 C.ar    1  UNL1        0.0212
     25 C          63.9353   90.9605   12.4247 C.ar    1  UNL1       -0.0007
     26 C          64.9131   91.2521   13.5241 C.ar    1  UNL1       -0.0002
     27 C          66.0967   92.1351   13.2604 C.ar    1  UNL1       -0.0000
     28 C          66.3023   92.7265   11.8973 C.ar    1  UNL1       -0.0002
     29 C          65.3244   92.4349   10.7979 C.ar    1  UNL1       -0.0007
@<TRIPOS>UNITY_ATOM_ATTR
19 1
charge -1
@<TRIPOS>BOND
     1    19    20   ar
     2    20    21   ar
     3    20    13    1
     4    13    14   ar
     5    14    15   ar
     6    15    16   ar
     7    16    17   ar
     8    17     8    1
     9     8     9   ar
    10     9    10   ar
    11    10    11   ar
    12    11    12   ar
    13    12     1    1
    14     1     2   ar
    15     2     3   ar
    16     3     4    1
    17     3     5   ar
    18     5     6   ar
    19     6     7   ar
    20     7    22    1
    21    22    23    1
    22    23    24    1
    23    24    25   ar
    24    25    26   ar
    25    26    27   ar
    26    27    28   ar
    27    28    29   ar
    28    17    18   ar
    29    18    13   ar
    30    12     8   ar
    31     7     1   ar
    32    29    24   ar
@<TRIPOS>MOLECULE
*****
 29 32 0 0 0
SMALL
GASTEIGER

@<TRIPOS>ATOM
      1 C          64.2671   90.8428   13.0324 C.ar    1  UNL1        0.0525
      2 C          63.8729   91.4525   11.7197 C.ar    1  UNL1        0.0159
      3 C          63.0884   90.6490   10.7253 C.ar    1  UNL1        0.0579
      4 CL         62.6942   91.2585    9.4126 Cl      1  UNL1       -0.0822
      5 C          62.6981   89.2360   11.0433 C.ar    1  UNL1        0.0145
      6 C          63.0923   88.6265   12.3560 C.ar    1  UNL1        0.0378
      7 C          63.8768   89.4299   13.3505 C.ar    1  UNL1        0.1405
      8 N          66.0189   92.7465   13.7049 N.ar    1  UNL1       -0.2877
      9 C          66.5716   93.2708   14.9970 C.ar    1  UNL1        0.1828
     10 N          65.9459   92.4945   16.1177 N.ar    1  UNL1       -0.2221
     11 C          65.0064   91.4905   15.5181 C.ar    1  UNL1        0.1182
     12 C          65.0516   91.6463   14.0269 C.ar    1  UNL1        0.0874
     13 C          67.5578   92.8733   10.0489 C.ar    1  UNL1        0.0154
     14 C          67.0771   94.2164    9.5855 C.ar    1  UNL1        0.0012
     15 C          66.2437   95.0696   10.4951 C.ar    1  UNL1        0.0015
     16 C          65.8909   94.5797   11.8682 C.ar    1  UNL1        0.0176
     17 C          66.3716   93.2365   12.3317 C.ar    1  UNL1        0.0655
     18 C          67.2050   92.3833   11.4220 C.ar    1  UNL1        0.0187
     19 O          67.8326   90.7406    8.5908 O.co2   1  UNL1       -0.5446
     20 C          68.3912   92.0201    9.1393 C.2     1  UNL1        0.0729
     21 O          69.7832   92.4463    8.7781 O.co2   1  UNL1       -0.5446
     22 O          64.2710   88.8203   14.6631 O.3     1  UNL1       -0.4706
     23 C          64.9068   87.4623   14.6986 C.3     1  UNL1        0.2320
     24 C          64.0550   86.2395   14.8702 C.ar    1  UNL1        0.0212
     25 C          63.8952   85.2714   13.7357 C.ar    1  UNL1       -0.0007
     26 C          63.0434   84.0487   13.9074 C.ar    1  UNL1       -0.0002
     27 C          62.3514   83.7941   15.2136 C.ar    1  UNL1       -0.0000
     28 C          62.5112   84.7622   16.3482 C.ar    1  UNL1       -0.0002
     29 C          63.3630   85.9849   16.1765 C.ar    1  UNL1       -0.0007
@<TRIPOS>UNITY_ATOM_ATTR
19 1
charge -1
@<TRIPOS>BOND
     1    19    20   ar
     2    20    21   ar
     3    20    13    1
     4    13    14   ar
     5    14    15   ar
     6    15    16   ar
     7    16    17   ar
     8    17     8    1
     9     8     9   ar
    10     9    10   ar
    11    10    11   ar
    12    11    12   ar
    13    12     1    1
    14     1     2   ar
    15     2     3   ar
    16     3     4    1
    17     3     5   ar
    18     5     6   ar
    19     6     7   ar
    20     7    22    1
    21    22    23    1
    22    23    24    1
    23    24    25   ar
    24    25    26   ar
    25    26    27   ar
    26    27    28   ar
    27    28    29   ar
    28    17    18   ar
    29    18    13   ar
    30    12     8   ar
    31     7     1   ar
    32    29    24   ar
@<TRIPOS>MOLECULE
*****
 29 32 0 0 0
SMALL
GASTEIGER

@<TRIPOS>ATOM
      1 C          62.3882   85.9297   11.4397 C.ar    1  UNL1        0.0525
      2 C          61.2065   86.8203   11.1936 C.ar    1  UNL1        0.0159
      3 C          60.6738   86.9920    9.8019 C.ar    1  UNL1        0.0579
      4 CL         59.4922   87.8826    9.5557 Cl      1  UNL1       -0.0822
      5 C          61.3228   86.2733    8.6563 C.ar    1  UNL1        0.0145
      6 C          62.5044   85.3828    8.9025 C.ar    1  UNL1        0.0378
      7 C          63.0371   85.2110   10.2941 C.ar    1  UNL1        0.1405
      8 N          63.5238   86.8348   13.6838 N.ar    1  UNL1       -0.2877
      9 C          63.9197   86.2215   14.9942 C.ar    1  UNL1        0.1828
     10 N          63.5614   84.7656   14.9516 N.ar    1  UNL1       -0.2221
     11 C          62.9441   84.4790   13.6148 C.ar    1  UNL1        0.1182
     12 C          62.9209   85.7579   12.8313 C.ar    1  UNL1        0.0874
     13 C          64.6772   90.6310   13.7771 C.ar    1  UNL1        0.0154
     14 C          64.0524   91.1482   12.5154 C.ar    1  UNL1        0.0012
     15 C          63.2513   90.2276   11.6431 C.ar    1  UNL1        0.0015
     16 C          63.0751   88.7899   12.0325 C.ar    1  UNL1        0.0176
     17 C          63.7000   88.2727   13.2943 C.ar    1  UNL1        0.0655
     18 C          64.5010   89.1932   14.1665 C.ar    1  UNL1        0.0187
     19 O          64.7963   92.3574   15.7150 O.co2   1  UNL1       -0.5446
     20 C          65.4783   91.5516   14.6494 C.2     1  UNL1        0.0729
     21 O          66.9613   91.6664   14.4560 O.co2   1  UNL1       -0.5446
     22 O          64.2188   84.3204   10.5402 O.3     1  UNL1       -0.4706
     23 C          64.1163   82.8478   10.2747 C.3     1  UNL1        0.2320
     24 C          63.7480   81.9092   11.3853 C.ar    1  UNL1        0.0212
     25 C          62.7631   80.8050   11.1386 C.ar    1  UNL1       -0.0007
     26 C          62.3948   79.8665   12.2493 C.ar    1  UNL1       -0.0002
     27 C          63.0114   80.0321   13.6066 C.ar    1  UNL1       -0.0000
     28 C          63.9963   81.1363   13.8533 C.ar    1  UNL1       -0.0002
     29 C          64.3646   82.0748   12.7426 C.ar    1  UNL1       -0.0007
@<TRIPOS>UNITY_ATOM_ATTR
19 1
charge -1
@<TRIPOS>BOND
     1    19    20   ar
     2    20    21   ar
     3    20    13    1
     4    13    14   ar
     5    14    15   ar
     6    15    16   ar
     7    16    17   ar
     8    17     8    1
     9     8     9   ar
    10     9    10   ar
    11    10    11   ar
    12    11    12   ar
    13    12     1    1
    14     1     2   ar
    15     2     3   ar
    16     3     4    1
    17     3     5   ar
    18     5     6   ar
    19     6     7   ar
    20     7    22    1
    21    22    23    1
    22    23    24    1
    23    24    25   ar
    24    25    26   ar
    25    26    27   ar
    26    27    28   ar
    27    28    29   ar
    28    17    18   ar
    29    18    13   ar
    30    12     8   ar
    31     7     1   ar
    32    29    24   ar
