@<TRIPOS>MOLECULE
*****
 32 36 0 0 0
SMALL
GASTEIGER

@<TRIPOS>ATOM
      1 C          61.6988   87.1826   11.2366 C.2     1  UNL1        0.0450
      2 C          62.6413   88.0963   11.9624 C.2     1  UNL1        0.0577
      3 C          62.8279   89.5084   11.4925 C.2     1  UNL1        0.1962
      4 N          62.0719   90.0070   10.2966 N.2     1  UNL1       -0.0378
      5 C          61.1293   89.0933    9.5708 C.2     1  UNL1        0.3604
      6 N          60.2543   89.3017    8.3705 N.2     1  UNL1       -0.0343
      7 C          59.5270   88.0184    8.0986 C.2     1  UNL1        0.2321
      8 C          59.9525   87.0167    9.1310 C.2     1  UNL1        0.0421
      9 C          60.9428   87.6811   10.0409 C.3     1  UNL1        0.1734
     10 C          63.7705   90.4221   12.2183 C.ar    1  UNL1        0.0706
     11 C          64.1732   90.1161   13.6304 C.ar    1  UNL1        0.0083
     12 C          65.1158   91.0298   14.3563 C.ar    1  UNL1        0.0299
     13 C          65.6556   92.2494   13.6699 C.ar    1  UNL1        0.1424
     14 F          66.5981   93.1631   14.3956 F       1  UNL1       -0.2041
     15 C          65.2528   92.5554   12.2577 C.ar    1  UNL1        0.0594
     16 C          64.3103   91.6417   11.5319 C.ar    1  UNL1        0.1459
     17 F          63.9075   91.9476   10.1197 F       1  UNL1       -0.2040
     18 N          61.5123   85.7704   11.7067 N.pl3   1  UNL1       -0.3148
     19 H          60.6399   85.4799   12.0587 H       1  UNL1        0.1520
     20 C          63.3706   84.3980   12.8955 C.ar    1  UNL1        0.0858
     21 C          64.5131   83.4284   12.8292 C.ar    1  UNL1        0.1046
     22 N          64.9399   82.8615   11.5076 N.ar    1  UNL1       -0.2421
     23 C          64.2242   83.2642   10.2524 C.ar    1  UNL1        0.1002
     24 C          63.0816   84.2339   10.3188 C.ar    1  UNL1        0.0354
     25 C          62.6549   84.8007   11.6403 C.ar    1  UNL1        0.0556
     26 O          61.6891   84.4717   14.8747 O.2     1  UNL1       -0.2700
     27 C          62.9438   84.9649   14.2171 C.2     1  UNL1        0.2485
     28 N          63.7717   86.0249   14.8810 N.am    1  UNL1       -0.3024
     29 H          64.5952   86.3486   14.4494 H       1  UNL1        0.1497
     30 C          63.3449   86.5918   16.2026 C.3     1  UNL1        0.0720
     31 C          62.8737   86.3886   17.6121 C.3     1  UNL1        0.0213
     32 C          63.0769   87.7771   17.0821 C.3     1  UNL1        0.0213
@<TRIPOS>BOND
     1    26    27    2
     2    27    28   am
     3    28    30    1
     4    30    31    1
     5    31    32    1
     6    27    20    1
     7    20    21   ar
     8    21    22   ar
     9    22    23   ar
    10    23    24   ar
    11    24    25   ar
    12    25    18    1
    13    18     1    1
    14     1     2    2
    15     2     3    1
    16     3    10    1
    17    10    11   ar
    18    11    12   ar
    19    12    13   ar
    20    13    14    1
    21    13    15   ar
    22    15    16   ar
    23    16    17    1
    24     3     4    2
    25     4     5    1
    26     5     6    2
    27     6     7    1
    28     7     8    2
    29     8     9    1
    30    32    30    1
    31    25    20   ar
    32     9     1    1
    33    16    10   ar
    34     9     5    1
    35    28    29    1
    36    18    19    1
@<TRIPOS>MOLECULE
*****
 32 36 0 0 0
SMALL
GASTEIGER

@<TRIPOS>ATOM
      1 C          61.6596   88.5498   11.2092 C.2     1  UNL1        0.0450
      2 C          62.2777   87.3009   11.7642 C.2     1  UNL1        0.0577
      3 C          62.1709   86.0107   11.0067 C.2     1  UNL1        0.1962
      4 N          61.4459   85.9693    9.6941 N.2     1  UNL1       -0.0378
      5 C          60.8278   87.2183    9.1391 C.2     1  UNL1        0.3604
      6 N          60.0574   87.4827    7.8796 N.2     1  UNL1       -0.0343
      7 C          59.6881   88.9364    7.8587 C.2     1  UNL1        0.2321
      8 C          60.2303   89.5704    9.1053 C.2     1  UNL1        0.0421
      9 C          60.9347   88.5086    9.8967 C.3     1  UNL1        0.1734
     10 C          62.7890   84.7616   11.5617 C.ar    1  UNL1        0.0706
     11 C          62.6684   84.4512   13.0243 C.ar    1  UNL1        0.0083
     12 C          63.2864   83.2022   13.5793 C.ar    1  UNL1        0.0299
     13 C          64.0251   82.2637   12.6718 C.ar    1  UNL1        0.1424
     14 F          64.6432   81.0147   13.2267 F       1  UNL1       -0.2041
     15 C          64.1457   82.5742   11.2092 C.ar    1  UNL1        0.0594
     16 C          63.5276   83.8232   10.6542 C.ar    1  UNL1        0.1459
     17 F          63.6481   84.1337    9.1916 F       1  UNL1       -0.2040
     18 N          61.7665   89.8401   11.9667 N.pl3   1  UNL1       -0.3148
     19 H          60.9710   90.2219   12.4033 H       1  UNL1        0.1520
     20 C          63.9514   90.3665   13.2702 C.ar    1  UNL1        0.0858
     21 C          65.2703   91.0750   13.3626 C.ar    1  UNL1        0.1046
     22 N          65.7234   91.9654   12.2438 N.ar    1  UNL1       -0.2421
     23 C          64.8575   92.1475   11.0325 C.ar    1  UNL1        0.1002
     24 C          63.5384   91.4390   10.9402 C.ar    1  UNL1        0.0354
     25 C          63.0855   90.5486   12.0591 C.ar    1  UNL1        0.0556
     26 O          62.3511   89.8922   15.2612 O.2     1  UNL1       -0.2700
     27 C          63.4984   89.4761   14.3892 C.2     1  UNL1        0.2485
     28 N          64.1927   88.1696   14.6360 N.am    1  UNL1       -0.3024
     29 H          64.9457   87.8965   14.0636 H       1  UNL1        0.1497
     30 C          63.7397   87.2791   15.7549 C.3     1  UNL1        0.0720
     31 C          63.0564   87.1013   17.0784 C.3     1  UNL1        0.0213
     32 C          63.6384   85.9145   16.3694 C.3     1  UNL1        0.0213
@<TRIPOS>BOND
     1    26    27    2
     2    27    28   am
     3    28    30    1
     4    30    31    1
     5    31    32    1
     6    27    20    1
     7    20    21   ar
     8    21    22   ar
     9    22    23   ar
    10    23    24   ar
    11    24    25   ar
    12    25    18    1
    13    18     1    1
    14     1     2    2
    15     2     3    1
    16     3    10    1
    17    10    11   ar
    18    11    12   ar
    19    12    13   ar
    20    13    14    1
    21    13    15   ar
    22    15    16   ar
    23    16    17    1
    24     3     4    2
    25     4     5    1
    26     5     6    2
    27     6     7    1
    28     7     8    2
    29     8     9    1
    30    32    30    1
    31    25    20   ar
    32     9     1    1
    33    16    10   ar
    34     9     5    1
    35    28    29    1
    36    18    19    1
@<TRIPOS>MOLECULE
*****
 32 36 0 0 0
SMALL
GASTEIGER

@<TRIPOS>ATOM
      1 C          64.1867   88.6238   13.5713 C.2     1  UNL1        0.0450
      2 C          63.2716   88.0544   12.5281 C.2     1  UNL1        0.0577
      3 C          62.7267   88.9379   11.4454 C.2     1  UNL1        0.1962
      4 N          63.0968   90.3911   11.4059 N.2     1  UNL1       -0.0378
      5 C          64.0118   90.9605   12.4492 C.2     1  UNL1        0.3604
      6 N          64.5491   92.3442   12.6657 N.2     1  UNL1       -0.0343
      7 C          65.4261   92.3156   13.8823 C.2     1  UNL1        0.2321
      8 C          65.4309   90.9144   14.4176 C.2     1  UNL1        0.0421
      9 C          64.5568   90.0769   13.5318 C.3     1  UNL1        0.1734
     10 C          61.8115   88.3684   10.4022 C.ar    1  UNL1        0.0706
     11 C          62.0078   86.9619    9.9194 C.ar    1  UNL1        0.0083
     12 C          61.0927   86.3924    8.8762 C.ar    1  UNL1        0.0299
     13 C          59.9814   87.2295    8.3157 C.ar    1  UNL1        0.1424
     14 F          59.0663   86.6601    7.2725 F       1  UNL1       -0.2041
     15 C          59.7851   88.6361    8.7985 C.ar    1  UNL1        0.0594
     16 C          60.7002   89.2055    9.8417 C.ar    1  UNL1        0.1459
     17 F          60.5039   90.6121   10.3245 F       1  UNL1       -0.2040
     18 N          64.7317   87.7402   14.6540 N.pl3   1  UNL1       -0.3148
     19 H          65.7034   87.6053   14.7367 H       1  UNL1        0.1520
     20 C          63.4039   85.6314   15.3889 C.ar    1  UNL1        0.0858
     21 C          62.4684   84.9533   16.3454 C.ar    1  UNL1        0.1046
     22 N          61.9251   85.7059   17.5237 N.ar    1  UNL1       -0.2421
     23 C          62.3173   87.1367   17.7454 C.ar    1  UNL1        0.1002
     24 C          63.2529   87.8148   16.7888 C.ar    1  UNL1        0.0354
     25 C          63.7961   87.0620   15.6106 C.ar    1  UNL1        0.0556
     26 O          65.4008   84.5121   14.1603 O.2     1  UNL1       -0.2700
     27 C          63.9472   84.8787   14.2106 C.2     1  UNL1        0.2485
     28 N          63.0369   84.4926   13.0827 N.am    1  UNL1       -0.3024
     29 H          62.0829   84.7332   13.1157 H       1  UNL1        0.1497
     30 C          63.5802   83.7399   11.9044 C.3     1  UNL1        0.0720
     31 C          63.7833   83.6159   10.4234 C.3     1  UNL1        0.0213
     32 C          64.3182   82.5600   11.3447 C.3     1  UNL1        0.0213
@<TRIPOS>BOND
     1    26    27    2
     2    27    28   am
     3    28    30    1
     4    30    31    1
     5    31    32    1
     6    27    20    1
     7    20    21   ar
     8    21    22   ar
     9    22    23   ar
    10    23    24   ar
    11    24    25   ar
    12    25    18    1
    13    18     1    1
    14     1     2    2
    15     2     3    1
    16     3    10    1
    17    10    11   ar
    18    11    12   ar
    19    12    13   ar
    20    13    14    1
    21    13    15   ar
    22    15    16   ar
    23    16    17    1
    24     3     4    2
    25     4     5    1
    26     5     6    2
    27     6     7    1
    28     7     8    2
    29     8     9    1
    30    32    30    1
    31    25    20   ar
    32     9     1    1
    33    16    10   ar
    34     9     5    1
    35    28    29    1
    36    18    19    1
@<TRIPOS>MOLECULE
*****
 32 36 0 0 0
SMALL
GASTEIGER

@<TRIPOS>ATOM
      1 C          63.9566   87.1810   14.7185 C.2     1  UNL1        0.0450
      2 C          63.9268   86.0747   13.7060 C.2     1  UNL1        0.0577
      3 C          63.2891   84.7611   14.0489 C.2     1  UNL1        0.1962
      4 N          62.6810   84.5538   15.4044 N.2     1  UNL1       -0.0378
      5 C          62.7107   85.6601   16.4169 C.2     1  UNL1        0.3604
      6 N          62.1960   85.7478   17.8231 N.2     1  UNL1       -0.0343
      7 C          62.5157   87.1156   18.3492 C.2     1  UNL1        0.2321
      8 C          63.2280   87.8733   17.2682 C.2     1  UNL1        0.0421
      9 C          63.3485   86.9737   16.0739 C.3     1  UNL1        0.1734
     10 C          63.2594   83.6547   13.0364 C.ar    1  UNL1        0.0706
     11 C          63.9494   83.8279   11.7158 C.ar    1  UNL1        0.0083
     12 C          63.9197   82.7216   10.7033 C.ar    1  UNL1        0.0299
     13 C          63.2000   81.4421   11.0113 C.ar    1  UNL1        0.1424
     14 F          63.1702   80.3358    9.9989 F       1  UNL1       -0.2041
     15 C          62.5099   81.2690   12.3319 C.ar    1  UNL1        0.0594
     16 C          62.5396   82.3753   13.3444 C.ar    1  UNL1        0.1459
     17 F          61.8495   82.2022   14.6650 F       1  UNL1       -0.2040
     18 N          64.5944   88.4946   14.3755 N.pl3   1  UNL1       -0.3148
     19 H          65.3878   88.8009   14.8714 H       1  UNL1        0.1520
     20 C          64.3380   90.8069   13.2190 C.ar    1  UNL1        0.0858
     21 C          63.7669   91.6538   12.1205 C.ar    1  UNL1        0.1046
     22 N          62.8811   91.0352   11.0800 N.ar    1  UNL1       -0.2421
     23 C          62.5664   89.5697   11.1379 C.ar    1  UNL1        0.1002
     24 C          63.1375   88.7228   12.2365 C.ar    1  UNL1        0.0354
     25 C          64.0233   89.3415   13.2769 C.ar    1  UNL1        0.0556
     26 O          64.6873   91.7025   15.6327 O.2     1  UNL1       -0.2700
     27 C          65.2238   91.4256   14.2595 C.2     1  UNL1        0.2485
     28 N          66.6459   91.7673   13.9269 N.am    1  UNL1       -0.3024
     29 H          66.9980   91.5855   13.0257 H       1  UNL1        0.1497
     30 C          67.5317   92.3860   14.9675 C.3     1  UNL1        0.0720
     31 C          68.0619   93.6035   15.6650 C.3     1  UNL1        0.0213
     32 C          68.5358   92.2398   16.0722 C.3     1  UNL1        0.0213
@<TRIPOS>BOND
     1    26    27    2
     2    27    28   am
     3    28    30    1
     4    30    31    1
     5    31    32    1
     6    27    20    1
     7    20    21   ar
     8    21    22   ar
     9    22    23   ar
    10    23    24   ar
    11    24    25   ar
    12    25    18    1
    13    18     1    1
    14     1     2    2
    15     2     3    1
    16     3    10    1
    17    10    11   ar
    18    11    12   ar
    19    12    13   ar
    20    13    14    1
    21    13    15   ar
    22    15    16   ar
    23    16    17    1
    24     3     4    2
    25     4     5    1
    26     5     6    2
    27     6     7    1
    28     7     8    2
    29     8     9    1
    30    32    30    1
    31    25    20   ar
    32     9     1    1
    33    16    10   ar
    34     9     5    1
    35    28    29    1
    36    18    19    1
@<TRIPOS>MOLECULE
*****
 32 36 0 0 0
SMALL
GASTEIGER

@<TRIPOS>ATOM
      1 C          62.3039   88.6922   10.8236 C.2     1  UNL1        0.0450
      2 C          62.8158   87.4737   11.5331 C.2     1  UNL1        0.0577
      3 C          62.2584   86.1219   11.1993 C.2     1  UNL1        0.1962
      4 N          61.1890   85.9882   10.1558 N.2     1  UNL1       -0.0378
      5 C          60.6771   87.2067    9.4463 C.2     1  UNL1        0.3604
      6 N          59.6366   87.3845    8.3807 N.2     1  UNL1       -0.0343
      7 C          59.5510   88.8464    8.0559 C.2     1  UNL1        0.2321
      8 C          60.5385   89.5721    8.9209 C.2     1  UNL1        0.0421
      9 C          61.2345   88.5586    9.7802 C.3     1  UNL1        0.1734
     10 C          62.7703   84.9034   11.9088 C.ar    1  UNL1        0.0706
     11 C          62.5900   84.7679   13.3918 C.ar    1  UNL1        0.0083
     12 C          63.1019   83.5495   14.1013 C.ar    1  UNL1        0.0299
     13 C          63.7941   82.4666   13.3279 C.ar    1  UNL1        0.1424
     14 F          64.3060   81.2482   14.0374 F       1  UNL1       -0.2041
     15 C          63.9743   82.6021   11.8449 C.ar    1  UNL1        0.0594
     16 C          63.4624   83.8204   11.1354 C.ar    1  UNL1        0.1459
     17 F          63.6426   83.9560    9.6524 F       1  UNL1       -0.2040
     18 N          62.8613   90.0441   11.1575 N.pl3   1  UNL1       -0.3148
     19 H          62.8699   90.7549   10.4764 H       1  UNL1        0.1520
     20 C          64.5382   91.2797   12.7104 C.ar    1  UNL1        0.0858
     21 C          65.0826   91.5487   14.0819 C.ar    1  UNL1        0.1046
     22 N          64.4945   90.8508   15.2724 N.ar    1  UNL1       -0.2421
     23 C          63.3620   89.8841   15.0912 C.ar    1  UNL1        0.1002
     24 C          62.8175   89.6152   13.7195 C.ar    1  UNL1        0.0354
     25 C          63.4058   90.3130   12.5292 C.ar    1  UNL1        0.0556
     26 O          64.2583   92.3160   10.3444 O.2     1  UNL1       -0.2700
     27 C          65.1264   91.9776   11.5199 C.2     1  UNL1        0.2485
     28 N          66.5825   92.3371   11.5050 N.am    1  UNL1       -0.3024
     29 H          67.1523   92.1149   12.2766 H       1  UNL1        0.1497
     30 C          67.1707   93.0349   10.3146 C.3     1  UNL1        0.0720
     31 C          68.0840   93.0278    9.1247 C.3     1  UNL1        0.0213
     32 C          67.2761   94.2510    9.4426 C.3     1  UNL1        0.0213
@<TRIPOS>BOND
     1    26    27    2
     2    27    28   am
     3    28    30    1
     4    30    31    1
     5    31    32    1
     6    27    20    1
     7    20    21   ar
     8    21    22   ar
     9    22    23   ar
    10    23    24   ar
    11    24    25   ar
    12    25    18    1
    13    18     1    1
    14     1     2    2
    15     2     3    1
    16     3    10    1
    17    10    11   ar
    18    11    12   ar
    19    12    13   ar
    20    13    14    1
    21    13    15   ar
    22    15    16   ar
    23    16    17    1
    24     3     4    2
    25     4     5    1
    26     5     6    2
    27     6     7    1
    28     7     8    2
    29     8     9    1
    30    32    30    1
    31    25    20   ar
    32     9     1    1
    33    16    10   ar
    34     9     5    1
    35    28    29    1
    36    18    19    1
@<TRIPOS>MOLECULE
*****
 32 36 0 0 0
SMALL
GASTEIGER

@<TRIPOS>ATOM
      1 C          64.0243   90.2433   12.8904 C.2     1  UNL1        0.0450
      2 C          64.6796   91.0901   11.8400 C.2     1  UNL1        0.0577
      3 C          65.3672   92.3659   12.2265 C.2     1  UNL1        0.1962
      4 N          65.3995   92.7951   13.6635 N.2     1  UNL1       -0.0378
      5 C          64.7441   91.9483   14.7139 C.2     1  UNL1        0.3604
      6 N          64.6145   92.1132   16.1991 N.2     1  UNL1       -0.0343
      7 C          63.8467   90.9393   16.7306 C.2     1  UNL1        0.2321
      8 C          63.5019   90.0488   15.5738 C.2     1  UNL1        0.0421
      9 C          64.0565   90.6724   14.3274 C.3     1  UNL1        0.1734
     10 C          66.0226   93.2128   11.1760 C.ar    1  UNL1        0.0706
     11 C          65.4247   94.5356   10.7984 C.ar    1  UNL1        0.0083
     12 C          66.0801   95.3824    9.7479 C.ar    1  UNL1        0.0299
     13 C          67.3333   94.9064    9.0751 C.ar    1  UNL1        0.1424
     14 F          67.9887   95.7531    8.0247 F       1  UNL1       -0.2041
     15 C          67.9312   93.5835    9.4527 C.ar    1  UNL1        0.0594
     16 C          67.2758   92.7367   10.5031 C.ar    1  UNL1        0.1459
     17 F          67.8737   91.4138   10.8808 F       1  UNL1       -0.2040
     18 N          63.3367   88.9675   12.5039 N.pl3   1  UNL1       -0.3148
     19 H          63.6373   88.1112   12.8854 H       1  UNL1        0.1520
     20 C          61.7133   87.7241   10.9012 C.ar    1  UNL1        0.0858
     21 C          60.5677   87.7530    9.9333 C.ar    1  UNL1        0.1046
     22 N          59.8999   89.0542    9.6002 N.ar    1  UNL1       -0.2421
     23 C          60.3776   90.3265   10.2350 C.ar    1  UNL1        0.1002
     24 C          61.5233   90.2976   11.2030 C.ar    1  UNL1        0.0354
     25 C          62.1910   88.9964   11.5360 C.ar    1  UNL1        0.0556
     26 O          62.8912   86.1756   12.6230 O.2     1  UNL1       -0.2700
     27 C          62.3811   86.4229   11.2342 C.2     1  UNL1        0.2485
     28 N          62.5388   85.3691   10.1786 N.am    1  UNL1       -0.3024
     29 H          62.2040   85.5314    9.2671 H       1  UNL1        0.1497
     30 C          63.2066   84.0678   10.5116 C.3     1  UNL1        0.0720
     31 C          64.2968   83.0671   10.2668 C.3     1  UNL1        0.0213
     32 C          63.2729   82.8147   11.3335 C.3     1  UNL1        0.0213
@<TRIPOS>BOND
     1    26    27    2
     2    27    28   am
     3    28    30    1
     4    30    31    1
     5    31    32    1
     6    27    20    1
     7    20    21   ar
     8    21    22   ar
     9    22    23   ar
    10    23    24   ar
    11    24    25   ar
    12    25    18    1
    13    18     1    1
    14     1     2    2
    15     2     3    1
    16     3    10    1
    17    10    11   ar
    18    11    12   ar
    19    12    13   ar
    20    13    14    1
    21    13    15   ar
    22    15    16   ar
    23    16    17    1
    24     3     4    2
    25     4     5    1
    26     5     6    2
    27     6     7    1
    28     7     8    2
    29     8     9    1
    30    32    30    1
    31    25    20   ar
    32     9     1    1
    33    16    10   ar
    34     9     5    1
    35    28    29    1
    36    18    19    1
@<TRIPOS>MOLECULE
*****
 32 36 0 0 0
SMALL
GASTEIGER

@<TRIPOS>ATOM
      1 C          63.1507   88.5516   12.2049 C.2     1  UNL1        0.0450
      2 C          63.4238   87.1407   12.6348 C.2     1  UNL1        0.0577
      3 C          62.4957   86.0376   12.2209 C.2     1  UNL1        0.1962
      4 N          61.2942   86.3452   11.3770 N.2     1  UNL1       -0.0378
      5 C          61.0211   87.7561   10.9471 C.2     1  UNL1        0.3604
      6 N          59.9246   88.3587   10.1198 N.2     1  UNL1       -0.0343
      7 C          60.1751   89.8345   10.0225 C.2     1  UNL1        0.2321
      8 C          61.4265   90.1438   10.7896 C.2     1  UNL1        0.0421
      9 C          61.9493   88.8593   11.3611 C.3     1  UNL1        0.1734
     10 C          62.7688   84.6266   12.6508 C.ar    1  UNL1        0.0706
     11 C          62.5478   84.2213   14.0780 C.ar    1  UNL1        0.0083
     12 C          62.8210   82.8104   14.5079 C.ar    1  UNL1        0.0299
     13 C          63.3152   81.8049   13.5106 C.ar    1  UNL1        0.1424
     14 F          63.5883   80.3940   13.9403 F       1  UNL1       -0.2041
     15 C          63.5362   82.2102   12.0834 C.ar    1  UNL1        0.0594
     16 C          63.2630   83.6210   11.6535 C.ar    1  UNL1        0.1459
     17 F          63.4840   84.0264   10.2263 F       1  UNL1       -0.2040
     18 N          64.0789   89.6548   12.6189 N.pl3   1  UNL1       -0.3148
     19 H          64.7248   90.0228   11.9735 H       1  UNL1        0.1520
     20 C          64.8562   91.3862   14.3932 C.ar    1  UNL1        0.0858
     21 C          64.8003   91.9287   15.7905 C.ar    1  UNL1        0.1046
     22 N          63.9110   91.2822   16.8110 N.ar    1  UNL1       -0.2421
     23 C          63.0776   90.0933   16.4341 C.ar    1  UNL1        0.1002
     24 C          63.1336   89.5508   15.0367 C.ar    1  UNL1        0.0354
     25 C          64.0229   90.1973   14.0163 C.ar    1  UNL1        0.0556
     26 O          67.2281   91.8095   13.4211 O.2     1  UNL1       -0.2700
     27 C          65.7455   92.0327   13.3728 C.2     1  UNL1        0.2485
     28 N          65.1524   92.9021   12.3042 N.am    1  UNL1       -0.3024
     29 H          64.1794   93.0485   12.2725 H       1  UNL1        0.1497
     30 C          66.0417   93.5486   11.2837 C.3     1  UNL1        0.0720
     31 C          66.6383   94.7836   10.6764 C.3     1  UNL1        0.0213
     32 C          66.9856   93.4332   10.1236 C.3     1  UNL1        0.0213
@<TRIPOS>BOND
     1    26    27    2
     2    27    28   am
     3    28    30    1
     4    30    31    1
     5    31    32    1
     6    27    20    1
     7    20    21   ar
     8    21    22   ar
     9    22    23   ar
    10    23    24   ar
    11    24    25   ar
    12    25    18    1
    13    18     1    1
    14     1     2    2
    15     2     3    1
    16     3    10    1
    17    10    11   ar
    18    11    12   ar
    19    12    13   ar
    20    13    14    1
    21    13    15   ar
    22    15    16   ar
    23    16    17    1
    24     3     4    2
    25     4     5    1
    26     5     6    2
    27     6     7    1
    28     7     8    2
    29     8     9    1
    30    32    30    1
    31    25    20   ar
    32     9     1    1
    33    16    10   ar
    34     9     5    1
    35    28    29    1
    36    18    19    1
@<TRIPOS>MOLECULE
*****
 32 36 0 0 0
SMALL
GASTEIGER

@<TRIPOS>ATOM
      1 C          62.5512   89.5330   11.4853 C.2     1  UNL1        0.0450
      2 C          63.0583   88.1256   11.3769 C.2     1  UNL1        0.0577
      3 C          62.0897   86.9822   11.3126 C.2     1  UNL1        0.1962
      4 N          60.6137   87.2462   11.3568 N.2     1  UNL1       -0.0378
      5 C          60.1065   88.6536   11.4653 C.2     1  UNL1        0.3604
      6 N          58.7182   89.2180   11.5292 N.2     1  UNL1       -0.0343
      7 C          58.8290   90.7103   11.6330 C.2     1  UNL1        0.2321
      8 C          60.2857   91.0682   11.6332 C.2     1  UNL1        0.0421
      9 C          61.0753   89.7971   11.5295 C.3     1  UNL1        0.1734
     10 C          62.5969   85.5746   11.2042 C.ar    1  UNL1        0.0706
     11 C          62.6336   84.6950   12.4186 C.ar    1  UNL1        0.0083
     12 C          63.1408   83.2875   12.3102 C.ar    1  UNL1        0.0299
     13 C          63.6113   82.7597   10.9873 C.ar    1  UNL1        0.1424
     14 F          64.1185   81.3523   10.8788 F       1  UNL1       -0.2041
     15 C          63.5746   83.6393    9.7729 C.ar    1  UNL1        0.0594
     16 C          63.0674   85.0468    9.8813 C.ar    1  UNL1        0.1459
     17 F          63.0307   85.9265    8.6669 F       1  UNL1       -0.2040
     18 N          63.5199   90.6765   11.5495 N.pl3   1  UNL1       -0.3148
     19 H          63.7673   91.1588   10.7277 H       1  UNL1        0.1520
     20 C          65.3029   91.9958   12.9024 C.ar    1  UNL1        0.0858
     21 C          65.8947   92.4044   14.2188 C.ar    1  UNL1        0.1046
     22 N          65.2952   91.9021   15.4988 N.ar    1  UNL1       -0.2421
     23 C          64.1039   90.9913   15.4624 C.ar    1  UNL1        0.1002
     24 C          63.5121   90.5827   14.1459 C.ar    1  UNL1        0.0354
     25 C          64.1117   91.0851   12.8660 C.ar    1  UNL1        0.0556
     26 O          65.0559   93.2593   10.6458 O.2     1  UNL1       -0.2700
     27 C          65.9025   92.4981   11.6224 C.2     1  UNL1        0.2485
     28 N          67.3484   92.2392   11.3192 N.am    1  UNL1       -0.3024
     29 H          67.9040   91.7396   11.9602 H       1  UNL1        0.1497
     30 C          67.9480   92.7415   10.0392 C.3     1  UNL1        0.0720
     31 C          68.6962   92.4818    8.7653 C.3     1  UNL1        0.0213
     32 C          68.2382   93.8713    9.0961 C.3     1  UNL1        0.0213
@<TRIPOS>BOND
     1    26    27    2
     2    27    28   am
     3    28    30    1
     4    30    31    1
     5    31    32    1
     6    27    20    1
     7    20    21   ar
     8    21    22   ar
     9    22    23   ar
    10    23    24   ar
    11    24    25   ar
    12    25    18    1
    13    18     1    1
    14     1     2    2
    15     2     3    1
    16     3    10    1
    17    10    11   ar
    18    11    12   ar
    19    12    13   ar
    20    13    14    1
    21    13    15   ar
    22    15    16   ar
    23    16    17    1
    24     3     4    2
    25     4     5    1
    26     5     6    2
    27     6     7    1
    28     7     8    2
    29     8     9    1
    30    32    30    1
    31    25    20   ar
    32     9     1    1
    33    16    10   ar
    34     9     5    1
    35    28    29    1
    36    18    19    1
@<TRIPOS>MOLECULE
*****
 32 36 0 0 0
SMALL
GASTEIGER

@<TRIPOS>ATOM
      1 C          63.1780   87.7184   12.2453 C.2     1  UNL1        0.0450
      2 C          63.3116   86.2869   12.6732 C.2     1  UNL1        0.0577
      3 C          62.3626   85.2538   12.1423 C.2     1  UNL1        0.1962
      4 N          61.2799   85.6520   11.1835 N.2     1  UNL1       -0.0378
      5 C          61.1464   87.0834   10.7556 C.2     1  UNL1        0.3604
      6 N          60.1853   87.7688    9.8301 N.2     1  UNL1       -0.0343
      7 C          60.5403   89.2256    9.7890 C.2     1  UNL1        0.2321
      8 C          61.7208   89.4406   10.6892 C.2     1  UNL1        0.0421
      9 C          62.0954   88.1166   11.2865 C.3     1  UNL1        0.1734
     10 C          62.4962   83.8222   12.5702 C.ar    1  UNL1        0.0706
     11 C          62.8917   82.7748   11.5719 C.ar    1  UNL1        0.0083
     12 C          63.0253   81.3434   11.9998 C.ar    1  UNL1        0.0299
     13 C          62.7635   80.9594   13.4260 C.ar    1  UNL1        0.1424
     14 F          62.8970   79.5280   13.8539 F       1  UNL1       -0.2041
     15 C          62.3680   82.0068   14.4243 C.ar    1  UNL1        0.0594
     16 C          62.2344   83.4382   13.9964 C.ar    1  UNL1        0.1459
     17 F          61.8390   84.4857   14.9946 F       1  UNL1       -0.2040
     18 N          64.1270   88.7516   12.7763 N.pl3   1  UNL1       -0.3148
     19 H          64.9029   89.0301   12.2381 H       1  UNL1        0.1520
     20 C          64.1272   90.8268   14.3394 C.ar    1  UNL1        0.0858
     21 C          63.8940   91.4357   15.6903 C.ar    1  UNL1        0.1046
     22 N          63.4275   90.5780   16.8290 N.ar    1  UNL1       -0.2421
     23 C          63.1941   89.1115   16.6169 C.ar    1  UNL1        0.1002
     24 C          63.4273   88.5027   15.2659 C.ar    1  UNL1        0.0354
     25 C          63.8938   89.3604   14.1272 C.ar    1  UNL1        0.0556
     26 O          63.9488   91.5568   11.8524 O.2     1  UNL1       -0.2700
     27 C          64.5937   91.6845   13.2006 C.2     1  UNL1        0.2485
     28 N          65.7050   92.6699   13.4101 N.am    1  UNL1       -0.3024
     29 H          66.1282   92.7537   14.2950 H       1  UNL1        0.1497
     30 C          66.1715   93.5276   12.2713 C.3     1  UNL1        0.0720
     31 C          66.9743   93.6954   11.0153 C.3     1  UNL1        0.0213
     32 C          66.1768   94.8455   11.5550 C.3     1  UNL1        0.0213
@<TRIPOS>BOND
     1    26    27    2
     2    27    28   am
     3    28    30    1
     4    30    31    1
     5    31    32    1
     6    27    20    1
     7    20    21   ar
     8    21    22   ar
     9    22    23   ar
    10    23    24   ar
    11    24    25   ar
    12    25    18    1
    13    18     1    1
    14     1     2    2
    15     2     3    1
    16     3    10    1
    17    10    11   ar
    18    11    12   ar
    19    12    13   ar
    20    13    14    1
    21    13    15   ar
    22    15    16   ar
    23    16    17    1
    24     3     4    2
    25     4     5    1
    26     5     6    2
    27     6     7    1
    28     7     8    2
    29     8     9    1
    30    32    30    1
    31    25    20   ar
    32     9     1    1
    33    16    10   ar
    34     9     5    1
    35    28    29    1
    36    18    19    1
