@<TRIPOS>MOLECULE
*****
 45 49 0 0 0
SMALL
GASTEIGER

@<TRIPOS>ATOM
      1 N          61.6897   86.9459   11.5262 N.ar    1  UNL1       -0.3260
      2 C          62.3840   85.9326   12.3871 C.ar    1  UNL1        0.0433
      3 C          63.4284   86.6468   13.1929 C.ar    1  UNL1        0.0383
      4 C          63.3795   88.1014   12.8299 C.ar    1  UNL1        0.0256
      5 C          64.1747   89.2815   13.3043 C.ar    1  UNL1        0.0389
      6 C          63.8953   90.6464   12.7486 C.ar    1  UNL1        0.1392
      7 C          62.8207   90.8312   11.7185 C.ar    1  UNL1        0.0384
      8 C          62.0256   89.6512   11.2441 C.ar    1  UNL1        0.0203
      9 C          62.3050   88.2862   11.7998 C.ar    1  UNL1        0.0606
     10 C          60.5757   86.6676   10.5610 C.3     1  UNL1        0.1324
     11 C          59.8577   89.4434    7.0926 C.ar    1  UNL1        0.0358
     12 C          59.8857   87.9599    6.8727 C.ar    1  UNL1        0.0028
     13 C          60.1250   87.0346    8.0287 C.ar    1  UNL1       -0.0023
     14 C          60.3364   87.5928    9.4049 C.ar    1  UNL1        0.0004
     15 C          60.3084   89.0764    9.6248 C.ar    1  UNL1       -0.0023
     16 C          60.0690   90.0017    8.4687 C.ar    1  UNL1        0.0028
     17 C          59.1396   92.2192    3.6244 C.ar    1  UNL1        0.1769
     18 C          57.9831   91.7278    4.4435 C.ar    1  UNL1        0.1389
     19 N          58.2224   90.8025    5.5996 N.ar    1  UNL1       -0.2218
     20 C          59.6183   90.3687    5.9365 C.ar    1  UNL1        0.1625
     21 N          60.7748   90.8602    5.1174 N.ar    1  UNL1       -0.2218
     22 C          60.5354   91.7855    3.9613 C.ar    1  UNL1        0.1389
     23 C          59.8595   93.1681    1.3154 C.3     1  UNL1        0.2526
     24 O          58.9002   93.1445    2.4683 O.3     1  UNL1       -0.4683
     25 C          62.0862   84.4632   12.4341 C.3     1  UNL1        0.0495
     26 C          62.9048   83.5057   11.6198 C.3     1  UNL1        0.0376
     27 C          62.6648   82.4328   12.6402 C.3     1  UNL1        0.0059
     28 C          63.1447   84.5786   10.5994 C.3     1  UNL1        0.0059
     29 C          63.7233   82.5481   10.8055 C.2     1  UNL1        0.0500
     30 O          63.2091   81.1656   10.5328 O.co2   1  UNL1       -0.5492
     31 O          65.0560   82.9730   10.2638 O.co2   1  UNL1       -0.5492
     32 S          64.3583   86.0169   14.1871 S.3     1  UNL1       -0.1142
     33 C          63.8872   85.7402   15.5841 C.3     1  UNL1        0.0434
     34 C          64.0180   84.2666   15.3364 C.3     1  UNL1        0.0112
     35 C          63.7564   87.2138   15.8318 C.3     1  UNL1        0.0112
     36 C          63.4160   85.4636   16.9811 C.3     1  UNL1        0.0112
     37 O          64.6905   91.8266   13.2230 O.3     1  UNL1       -0.4690
     38 C          66.1250   91.9785   12.8119 C.3     1  UNL1        0.2508
     39 C          66.4955   92.9439   11.7253 C.ar    1  UNL1        0.1026
     40 C          67.2577   92.4658   10.5251 C.ar    1  UNL1        0.0181
     41 C          67.6282   93.4313    9.4384 C.ar    1  UNL1       -0.0014
     42 C          67.2366   94.8747    9.5521 C.ar    1  UNL1       -0.0027
     43 C          67.6071   95.8401    8.4655 C.3     1  UNL1        0.0327
     44 C          66.4744   95.3528   10.7523 C.ar    1  UNL1        0.0943
     45 N          66.1039   94.3875   11.8389 N.ar    1  UNL1       -0.2448
@<TRIPOS>UNITY_ATOM_ATTR
30 1
charge -1
@<TRIPOS>BOND
     1    23    24    1
     2    24    17    1
     3    17    18   ar
     4    18    19   ar
     5    19    20   ar
     6    20    11    1
     7    11    12   ar
     8    12    13   ar
     9    13    14   ar
    10    14    10    1
    11    10     1    1
    12     1     2   ar
    13     2    25    1
    14    25    26    1
    15    26    27    1
    16    26    28    1
    17    26    29    1
    18    29    30   ar
    19    29    31   ar
    20     2     3   ar
    21     3    32    1
    22    32    33    1
    23    33    34    1
    24    33    35    1
    25    33    36    1
    26     3     4   ar
    27     4     5   ar
    28     5     6   ar
    29     6    37    1
    30    37    38    1
    31    38    39    1
    32    39    40   ar
    33    40    41   ar
    34    41    42   ar
    35    42    43    1
    36    42    44   ar
    37    44    45   ar
    38     6     7   ar
    39     7     8   ar
    40     8     9   ar
    41    14    15   ar
    42    15    16   ar
    43    20    21   ar
    44    21    22   ar
    45    22    17   ar
    46    16    11   ar
    47     9     1   ar
    48     9     4   ar
    49    45    39   ar
@<TRIPOS>MOLECULE
*****
 45 49 0 0 0
SMALL
GASTEIGER

@<TRIPOS>ATOM
      1 N          61.3475   86.6785   11.0788 N.ar    1  UNL1       -0.3260
      2 C          62.0840   85.5777   11.7831 C.ar    1  UNL1        0.0433
      3 C          63.0722   86.2067   12.7199 C.ar    1  UNL1        0.0383
      4 C          62.9465   87.6962   12.5947 C.ar    1  UNL1        0.0256
      5 C          63.6649   88.8247   13.2732 C.ar    1  UNL1        0.0389
      6 C          63.3174   90.2447   12.9374 C.ar    1  UNL1        0.1392
      7 C          62.2514   90.5362   11.9232 C.ar    1  UNL1        0.0384
      8 C          61.5330   89.4078   11.2447 C.ar    1  UNL1        0.0203
      9 C          61.8805   87.9878   11.5804 C.ar    1  UNL1        0.0606
     10 C          60.2675   86.5011   10.0531 C.3     1  UNL1        0.1324
     11 C          59.8030   89.5024    6.7325 C.ar    1  UNL1        0.0358
     12 C          60.1423   89.9641    8.1188 C.ar    1  UNL1        0.0028
     13 C          60.2971   88.9637    9.2256 C.ar    1  UNL1       -0.0023
     14 C          60.1127   87.5015    8.9463 C.ar    1  UNL1        0.0004
     15 C          59.7734   87.0398    7.5600 C.ar    1  UNL1       -0.0023
     16 C          59.6185   88.0402    6.4531 C.ar    1  UNL1        0.0028
     17 C          59.3384   92.5036    3.4119 C.ar    1  UNL1        0.1769
     18 C          60.6997   91.9838    3.7679 C.ar    1  UNL1        0.1389
     19 N          60.8546   90.9834    4.8748 N.ar    1  UNL1       -0.2218
     20 C          59.6481   90.5028    5.6257 C.ar    1  UNL1        0.1625
     21 N          58.2869   91.0227    5.2695 N.ar    1  UNL1       -0.2218
     22 C          58.1320   92.0231    4.1627 C.ar    1  UNL1        0.1389
     23 C          59.4106   93.0889    0.8816 C.3     1  UNL1        0.2526
     24 O          59.1835   93.5040    2.3050 O.3     1  UNL1       -0.4683
     25 C          61.8698   84.1063   11.5852 C.3     1  UNL1        0.0495
     26 C          63.0469   83.1957   11.3974 C.3     1  UNL1        0.0376
     27 C          62.6083   82.3849   12.5807 C.3     1  UNL1        0.0059
     28 C          63.4855   84.0065   10.2142 C.3     1  UNL1        0.0059
     29 C          64.2240   82.2850   11.2097 C.2     1  UNL1        0.0500
     30 O          64.8668   82.1586    9.8603 O.co2   1  UNL1       -0.5492
     31 O          64.7582   81.5007   12.3714 O.co2   1  UNL1       -0.5492
     32 S          64.0199   85.4748   13.6234 S.3     1  UNL1       -0.1142
     33 C          63.8795   85.5936   15.1122 C.3     1  UNL1        0.0434
     34 C          65.1504   86.3884   15.1685 C.3     1  UNL1        0.0112
     35 C          62.6086   84.7989   15.0557 C.3     1  UNL1        0.0112
     36 C          63.7390   85.7124   16.6008 C.3     1  UNL1        0.0112
     37 O          64.0359   91.3732   13.6159 O.3     1  UNL1       -0.4690
     38 C          65.2667   91.9615   12.9923 C.3     1  UNL1        0.2508
     39 C          66.4540   92.2949   13.8461 C.ar    1  UNL1        0.1026
     40 C          66.2539   92.8486   15.2257 C.ar    1  UNL1        0.0181
     41 C          67.4413   93.1820   16.0796 C.ar    1  UNL1       -0.0014
     42 C          68.8287   92.9618   15.5538 C.ar    1  UNL1       -0.0027
     43 C          70.0160   93.2952   16.4076 C.3     1  UNL1        0.0327
     44 C          69.0288   92.4081   14.1741 C.ar    1  UNL1        0.0943
     45 N          67.8415   92.0747   13.3203 N.ar    1  UNL1       -0.2448
@<TRIPOS>UNITY_ATOM_ATTR
30 1
charge -1
@<TRIPOS>BOND
     1    23    24    1
     2    24    17    1
     3    17    18   ar
     4    18    19   ar
     5    19    20   ar
     6    20    11    1
     7    11    12   ar
     8    12    13   ar
     9    13    14   ar
    10    14    10    1
    11    10     1    1
    12     1     2   ar
    13     2    25    1
    14    25    26    1
    15    26    27    1
    16    26    28    1
    17    26    29    1
    18    29    30   ar
    19    29    31   ar
    20     2     3   ar
    21     3    32    1
    22    32    33    1
    23    33    34    1
    24    33    35    1
    25    33    36    1
    26     3     4   ar
    27     4     5   ar
    28     5     6   ar
    29     6    37    1
    30    37    38    1
    31    38    39    1
    32    39    40   ar
    33    40    41   ar
    34    41    42   ar
    35    42    43    1
    36    42    44   ar
    37    44    45   ar
    38     6     7   ar
    39     7     8   ar
    40     8     9   ar
    41    14    15   ar
    42    15    16   ar
    43    20    21   ar
    44    21    22   ar
    45    22    17   ar
    46    16    11   ar
    47     9     1   ar
    48     9     4   ar
    49    45    39   ar
@<TRIPOS>MOLECULE
*****
 45 49 0 0 0
SMALL
GASTEIGER

@<TRIPOS>ATOM
      1 N          64.4902   90.2546   14.5711 N.ar    1  UNL1       -0.3260
      2 C          65.3749   91.4646   14.5150 C.ar    1  UNL1        0.0433
      3 C          65.0999   92.1805   13.2259 C.ar    1  UNL1        0.0383
      4 C          64.0452   91.4130   12.4853 C.ar    1  UNL1        0.0256
      5 C          63.3792   91.6442   11.1613 C.ar    1  UNL1        0.0389
      6 C          62.3365   90.6851   10.6687 C.ar    1  UNL1        0.1392
      7 C          61.9596   89.4948   11.5001 C.ar    1  UNL1        0.0384
      8 C          62.6256   89.2636   12.8241 C.ar    1  UNL1        0.0203
      9 C          63.6683   90.2227   13.3167 C.ar    1  UNL1        0.0606
     10 C          64.4366   89.2524   15.6859 C.3     1  UNL1        0.1324
     11 C          63.5021   84.9419   14.7937 C.ar    1  UNL1        0.0358
     12 C          63.0530   85.5545   16.0871 C.ar    1  UNL1        0.0028
     13 C          63.3644   86.9914   16.3845 C.ar    1  UNL1       -0.0023
     14 C          64.1251   87.8157   15.3885 C.ar    1  UNL1        0.0004
     15 C          64.5742   87.2030   14.0950 C.ar    1  UNL1       -0.0023
     16 C          64.2627   85.7662   13.7976 C.ar    1  UNL1        0.0028
     17 C          62.5676   80.6315   13.9013 C.ar    1  UNL1        0.1769
     18 C          63.9362   81.1763   13.6180 C.ar    1  UNL1        0.1389
     19 N          64.2476   82.6132   13.9154 N.ar    1  UNL1       -0.2218
     20 C          63.1906   83.5051   14.4962 C.ar    1  UNL1        0.1625
     21 N          61.8221   82.9601   14.7795 N.ar    1  UNL1       -0.2218
     22 C          61.5106   81.5233   14.4820 C.ar    1  UNL1        0.1389
     23 C          62.4774   78.6493   12.2242 C.3     1  UNL1        0.2526
     24 O          62.2561   79.1946   13.6038 O.3     1  UNL1       -0.4683
     25 C          66.3615   91.8848   15.5639 C.3     1  UNL1        0.0495
     26 C          67.7393   92.3233   15.1648 C.3     1  UNL1        0.0376
     27 C          67.4968   93.6613   15.7979 C.3     1  UNL1        0.0059
     28 C          67.9817   90.9853   14.5317 C.3     1  UNL1        0.0059
     29 C          69.1172   92.7618   14.7658 C.2     1  UNL1        0.0500
     30 O          69.7933   93.8771   15.5067 O.co2   1  UNL1       -0.5492
     31 O          69.8189   92.0851   13.6258 O.co2   1  UNL1       -0.5492
     32 S          65.7631   93.4424   12.7593 S.3     1  UNL1       -0.1142
     33 C          66.3729   93.5072   11.3903 C.3     1  UNL1        0.0434
     34 C          65.7460   94.8528   11.1748 C.3     1  UNL1        0.0112
     35 C          66.9998   92.1617   11.6059 C.3     1  UNL1        0.0112
     36 C          66.9827   93.5720   10.0214 C.3     1  UNL1        0.0112
     37 O          61.6705   90.9162    9.3446 O.3     1  UNL1       -0.4690
     38 C          60.3897   90.2082    9.0156 C.3     1  UNL1        0.2508
     39 C          60.4221   88.7991    8.5024 C.ar    1  UNL1        0.1026
     40 C          59.3769   88.3292    7.5345 C.ar    1  UNL1        0.0181
     41 C          59.4093   86.9200    7.0214 C.ar    1  UNL1       -0.0014
     42 C          60.4869   85.9809    7.4761 C.ar    1  UNL1       -0.0027
     43 C          60.5193   84.5718    6.9630 C.3     1  UNL1        0.0327
     44 C          61.5321   86.4508    8.4440 C.ar    1  UNL1        0.0943
     45 N          61.4997   87.8599    8.9571 N.ar    1  UNL1       -0.2448
@<TRIPOS>UNITY_ATOM_ATTR
30 1
charge -1
@<TRIPOS>BOND
     1    23    24    1
     2    24    17    1
     3    17    18   ar
     4    18    19   ar
     5    19    20   ar
     6    20    11    1
     7    11    12   ar
     8    12    13   ar
     9    13    14   ar
    10    14    10    1
    11    10     1    1
    12     1     2   ar
    13     2    25    1
    14    25    26    1
    15    26    27    1
    16    26    28    1
    17    26    29    1
    18    29    30   ar
    19    29    31   ar
    20     2     3   ar
    21     3    32    1
    22    32    33    1
    23    33    34    1
    24    33    35    1
    25    33    36    1
    26     3     4   ar
    27     4     5   ar
    28     5     6   ar
    29     6    37    1
    30    37    38    1
    31    38    39    1
    32    39    40   ar
    33    40    41   ar
    34    41    42   ar
    35    42    43    1
    36    42    44   ar
    37    44    45   ar
    38     6     7   ar
    39     7     8   ar
    40     8     9   ar
    41    14    15   ar
    42    15    16   ar
    43    20    21   ar
    44    21    22   ar
    45    22    17   ar
    46    16    11   ar
    47     9     1   ar
    48     9     4   ar
    49    45    39   ar
@<TRIPOS>MOLECULE
*****
 45 49 0 0 0
SMALL
GASTEIGER

@<TRIPOS>ATOM
      1 N          63.5774   88.6232   13.1525 N.ar    1  UNL1       -0.3260
      2 C          64.2915   89.9423   13.1633 C.ar    1  UNL1        0.0433
      3 C          63.6555   90.8220   12.1280 C.ar    1  UNL1        0.0383
      4 C          62.5485   90.0467   11.4775 C.ar    1  UNL1        0.0256
      5 C          61.5782   90.4025   10.3903 C.ar    1  UNL1        0.0389
      6 C          60.5596   89.3993    9.9364 C.ar    1  UNL1        0.1392
      7 C          60.5113   88.0404   10.5696 C.ar    1  UNL1        0.0384
      8 C          61.4816   87.6846   11.6567 C.ar    1  UNL1        0.0203
      9 C          62.5002   88.6877   12.1106 C.ar    1  UNL1        0.0606
     10 C          63.8863   87.4463   14.0296 C.3     1  UNL1        0.1324
     11 C          63.2941   83.2648   12.4756 C.ar    1  UNL1        0.0358
     12 C          62.9280   84.4416   11.6206 C.ar    1  UNL1        0.0028
     13 C          63.1254   85.8354   12.1385 C.ar    1  UNL1       -0.0023
     14 C          63.6889   86.0525   13.5116 C.ar    1  UNL1        0.0004
     15 C          64.0550   84.8757   14.3667 C.ar    1  UNL1       -0.0023
     16 C          63.8576   83.4819   13.8487 C.ar    1  UNL1        0.0028
     17 C          62.7019   79.0834   10.9217 C.ar    1  UNL1        0.1769
     18 C          62.4980   79.3780   12.3784 C.ar    1  UNL1        0.1389
     19 N          62.6954   80.7719   12.8963 N.ar    1  UNL1       -0.2218
     20 C          63.0967   81.8710   11.9577 C.ar    1  UNL1        0.1625
     21 N          63.3005   81.5763   10.5011 N.ar    1  UNL1       -0.2218
     22 C          63.1031   80.1825    9.9831 C.ar    1  UNL1        0.1389
     23 C          63.6912   76.8596   10.0130 C.3     1  UNL1        0.2526
     24 O          62.5045   77.6896   10.4038 O.3     1  UNL1       -0.4683
     25 C          65.4398   90.3161   14.0530 C.3     1  UNL1        0.0495
     26 C          65.2352   91.2964   15.1697 C.3     1  UNL1        0.0376
     27 C          63.8401   90.7816   15.3661 C.3     1  UNL1        0.0059
     28 C          66.6302   91.8113   14.9733 C.3     1  UNL1        0.0059
     29 C          65.0305   92.2768   16.2864 C.2     1  UNL1        0.0500
     30 O          63.6533   92.5177   16.8299 O.co2   1  UNL1       -0.5492
     31 O          66.2029   93.0163   16.8595 O.co2   1  UNL1       -0.5492
     32 S          64.0563   92.2300   11.8008 S.3     1  UNL1       -0.1142
     33 C          65.3493   92.4953   11.0880 C.3     1  UNL1        0.0434
     34 C          65.7983   93.3636   12.2257 C.3     1  UNL1        0.0112
     35 C          64.9002   91.6270    9.9503 C.3     1  UNL1        0.0112
     36 C          66.6421   92.7606   10.3752 C.3     1  UNL1        0.0112
     37 O          59.5892   89.7551    8.8492 O.3     1  UNL1       -0.4690
     38 C          59.7940   89.2291    7.4595 C.3     1  UNL1        0.2508
     39 C          59.7238   90.1615    6.2867 C.ar    1  UNL1        0.1026
     40 C          60.9748   90.5301    5.5456 C.ar    1  UNL1        0.0181
     41 C          60.9046   91.4626    4.3727 C.ar    1  UNL1       -0.0014
     42 C          59.5834   92.0264    3.9409 C.ar    1  UNL1       -0.0027
     43 C          59.5132   92.9588    2.7681 C.3     1  UNL1        0.0327
     44 C          58.3324   91.6578    4.6819 C.ar    1  UNL1        0.0943
     45 N          58.4026   90.7254    5.8548 N.ar    1  UNL1       -0.2448
@<TRIPOS>UNITY_ATOM_ATTR
30 1
charge -1
@<TRIPOS>BOND
     1    23    24    1
     2    24    17    1
     3    17    18   ar
     4    18    19   ar
     5    19    20   ar
     6    20    11    1
     7    11    12   ar
     8    12    13   ar
     9    13    14   ar
    10    14    10    1
    11    10     1    1
    12     1     2   ar
    13     2    25    1
    14    25    26    1
    15    26    27    1
    16    26    28    1
    17    26    29    1
    18    29    30   ar
    19    29    31   ar
    20     2     3   ar
    21     3    32    1
    22    32    33    1
    23    33    34    1
    24    33    35    1
    25    33    36    1
    26     3     4   ar
    27     4     5   ar
    28     5     6   ar
    29     6    37    1
    30    37    38    1
    31    38    39    1
    32    39    40   ar
    33    40    41   ar
    34    41    42   ar
    35    42    43    1
    36    42    44   ar
    37    44    45   ar
    38     6     7   ar
    39     7     8   ar
    40     8     9   ar
    41    14    15   ar
    42    15    16   ar
    43    20    21   ar
    44    21    22   ar
    45    22    17   ar
    46    16    11   ar
    47     9     1   ar
    48     9     4   ar
    49    45    39   ar
@<TRIPOS>MOLECULE
*****
 45 49 0 0 0
SMALL
GASTEIGER

@<TRIPOS>ATOM
      1 N          63.4896   87.4102   13.3116 N.ar    1  UNL1       -0.3260
      2 C          62.6117   87.4513   12.0960 C.ar    1  UNL1        0.0433
      3 C          62.6403   88.8483   11.5507 C.ar    1  UNL1        0.0383
      4 C          63.5358   89.6707   12.4291 C.ar    1  UNL1        0.0256
      5 C          63.9411   91.1140   12.3787 C.ar    1  UNL1        0.0389
      6 C          64.8713   91.6685   13.4165 C.ar    1  UNL1        0.1392
      7 C          65.3962   90.7797   14.5048 C.ar    1  UNL1        0.0384
      8 C          64.9910   89.3364   14.5553 C.ar    1  UNL1        0.0203
      9 C          64.0608   88.7819   13.5175 C.ar    1  UNL1        0.0606
     10 C          63.7506   86.2085   14.1705 C.3     1  UNL1        0.1324
     11 C          63.2296   82.0736   12.4733 C.ar    1  UNL1        0.0358
     12 C          62.1840   82.6485   13.3821 C.ar    1  UNL1        0.0028
     13 C          62.3576   84.0268   13.9479 C.ar    1  UNL1       -0.0023
     14 C          63.5770   84.8303   13.6048 C.ar    1  UNL1        0.0004
     15 C          64.6227   84.2553   12.6959 C.ar    1  UNL1       -0.0023
     16 C          64.4490   82.8770   12.1301 C.ar    1  UNL1        0.0028
     17 C          62.7087   77.9387   10.7760 C.ar    1  UNL1        0.1769
     18 C          62.5565   78.1688   12.2504 C.ar    1  UNL1        0.1389
     19 N          62.7301   79.5471   12.8162 N.ar    1  UNL1       -0.2218
     20 C          63.0560   80.6953   11.9075 C.ar    1  UNL1        0.1625
     21 N          63.2082   80.4651   10.4331 N.ar    1  UNL1       -0.2218
     22 C          63.0346   79.0868    9.8673 C.ar    1  UNL1        0.1389
     23 C          63.7067   75.8443    9.6065 C.3     1  UNL1        0.2526
     24 O          62.5351   76.5603   10.2102 O.3     1  UNL1       -0.4683
     25 C          61.8407   86.2978   11.5259 C.3     1  UNL1        0.0495
     26 C          61.7329   86.1293   10.0394 C.3     1  UNL1        0.0376
     27 C          60.3388   86.6813   10.0778 C.3     1  UNL1        0.0059
     28 C          63.1270   85.5772   10.0009 C.3     1  UNL1        0.0059
     29 C          61.6251   85.9607    8.5527 C.2     1  UNL1        0.0500
     30 O          62.7052   85.2428    7.7990 O.co2   1  UNL1       -0.5492
     31 O          60.4372   86.5100    7.8198 O.co2   1  UNL1       -0.5492
     32 S          61.9028   89.3372   10.3394 S.3     1  UNL1       -0.1142
     33 C          60.5706   90.0095   10.4931 C.3     1  UNL1        0.0434
     34 C          60.6871   89.8994   11.9845 C.3     1  UNL1        0.0112
     35 C          60.4542   90.1196    9.0017 C.3     1  UNL1        0.0112
     36 C          59.2385   90.6818   10.6467 C.3     1  UNL1        0.0112
     37 O          65.2766   93.1119   13.3661 O.3     1  UNL1       -0.4690
     38 C          66.6250   93.4940   12.8314 C.3     1  UNL1        0.2508
     39 C          66.7303   94.3343   11.5934 C.ar    1  UNL1        0.1026
     40 C          66.2056   95.7395   11.5938 C.ar    1  UNL1        0.0181
     41 C          66.3109   96.5798   10.3557 C.ar    1  UNL1       -0.0014
     42 C          66.9409   96.0148    9.1172 C.ar    1  UNL1       -0.0027
     43 C          67.0461   96.8551    7.8791 C.3     1  UNL1        0.0327
     44 C          67.4655   94.6096    9.1167 C.ar    1  UNL1        0.0943
     45 N          67.3602   93.7693   10.3548 N.ar    1  UNL1       -0.2448
@<TRIPOS>UNITY_ATOM_ATTR
30 1
charge -1
@<TRIPOS>BOND
     1    23    24    1
     2    24    17    1
     3    17    18   ar
     4    18    19   ar
     5    19    20   ar
     6    20    11    1
     7    11    12   ar
     8    12    13   ar
     9    13    14   ar
    10    14    10    1
    11    10     1    1
    12     1     2   ar
    13     2    25    1
    14    25    26    1
    15    26    27    1
    16    26    28    1
    17    26    29    1
    18    29    30   ar
    19    29    31   ar
    20     2     3   ar
    21     3    32    1
    22    32    33    1
    23    33    34    1
    24    33    35    1
    25    33    36    1
    26     3     4   ar
    27     4     5   ar
    28     5     6   ar
    29     6    37    1
    30    37    38    1
    31    38    39    1
    32    39    40   ar
    33    40    41   ar
    34    41    42   ar
    35    42    43    1
    36    42    44   ar
    37    44    45   ar
    38     6     7   ar
    39     7     8   ar
    40     8     9   ar
    41    14    15   ar
    42    15    16   ar
    43    20    21   ar
    44    21    22   ar
    45    22    17   ar
    46    16    11   ar
    47     9     1   ar
    48     9     4   ar
    49    45    39   ar
