@<TRIPOS>MOLECULE
*****
 43 47 0 0 0
SMALL
GASTEIGER

@<TRIPOS>ATOM
      1 C          62.8500   86.6969   11.7011 C.3     1  UNL1        0.1696
      2 C          62.9568   85.6364   12.7566 C.3     1  UNL1        0.1275
      3 N          63.0756   85.8045   14.2424 N.am    1  UNL1       -0.2505
      4 C          63.1649   84.5346   15.0359 C.2     1  UNL1        0.2721
      5 O          63.2866   84.5907   16.5299 O.2     1  UNL1       -0.2679
      6 C          63.1170   87.0743   15.0397 C.ar    1  UNL1        0.0679
      7 C          63.2429   86.7956   16.5082 C.ar    1  UNL1        0.0162
      8 C          63.3015   87.9324   17.4850 C.ar    1  UNL1        0.0014
      9 C          63.2342   89.3479   16.9934 C.ar    1  UNL1        0.0014
     10 C          63.1084   89.6267   15.5249 C.ar    1  UNL1        0.0162
     11 C          63.0497   88.4899   14.5481 C.ar    1  UNL1        0.0679
     12 N          62.9245   88.9851   13.1377 N.am    1  UNL1       -0.2517
     13 C          62.8356   88.1872   11.8707 C.2     1  UNL1        0.2493
     14 O          62.7166   88.9850   10.6061 O.2     1  UNL1       -0.2727
     15 C          63.1326   83.2086   14.3353 C.ar    1  UNL1        0.1541
     16 C          64.2723   82.8002   13.4499 C.ar    1  UNL1        0.1226
     17 N          64.2401   81.4743   12.7493 N.ar    1  UNL1       -0.2390
     18 C          63.0679   80.5567   12.9343 C.ar    1  UNL1        0.1195
     19 C          61.9282   80.9651   13.8197 C.ar    1  UNL1        0.1196
     20 N          61.9605   82.2911   14.5203 N.ar    1  UNL1       -0.2360
     21 C          61.4169   86.2105    9.5893 C.2     1  UNL1        0.2371
     22 O          60.1967   86.7150   10.3012 O.2     1  UNL1       -0.2737
     23 N          62.7435   86.2015   10.2893 N.am    1  UNL1       -0.2959
     24 H          63.5443   85.8704    9.8220 H       1  UNL1        0.1499
     25 C          61.3103   85.7151    8.1775 C.3     1  UNL1        0.1316
     26 C          62.5238   85.1793    7.4771 C.3     1  UNL1        0.0270
     27 C          59.1783   87.0167    7.4631 C.3     1  UNL1        0.0862
     28 N          59.9904   85.7556    7.4661 N.3     1  UNL1       -0.2902
     29 H          60.1745   85.5216    6.4905 H       1  UNL1        0.1237
     30 C          62.8826   90.4754   12.9726 C.3     1  UNL1        0.1278
     31 C          64.0451   91.1946   12.3548 C.ar    1  UNL1        0.0320
     32 C          64.0072   91.5737   10.9040 C.ar    1  UNL1        0.1363
     33 C          65.1696   92.2929   10.2862 C.ar    1  UNL1        0.0366
     34 C          66.3698   92.6329   11.1192 C.ar    1  UNL1        0.0031
     35 C          66.4076   92.2537   12.5700 C.ar    1  UNL1        0.0004
     36 C          67.6079   92.5938   13.4031 C.ar    1  UNL1        0.0067
     37 C          67.6456   92.2146   14.8538 C.ar    1  UNL1        0.0346
     38 BR         68.8458   92.5546   15.6868 Br      1  UNL1       -0.0490
     39 C          66.4832   91.4954   15.4717 C.ar    1  UNL1        0.0067
     40 C          65.2831   91.1555   14.6386 C.ar    1  UNL1        0.0003
     41 C          65.2453   91.5346   13.1879 C.ar    1  UNL1        0.0006
     42 O          62.8071   91.2337   10.0710 O.3     1  UNL1       -0.4717
     43 C          61.3398   91.1126   10.3579 C.3     1  UNL1        0.2525
@<TRIPOS>BOND
     1    27    28    1
     2    28    25    1
     3    25    26    1
     4    25    21    1
     5    21    22    2
     6    21    23   am
     7     1    23    1
     8     1     2    1
     9     2     3    1
    10     3     4   am
    11     4     5    2
    12     4    15    1
    13    15    16   ar
    14    16    17   ar
    15    17    18   ar
    16    18    19   ar
    17    19    20   ar
    18     3     6    1
    19     6     7   ar
    20     7     8   ar
    21     8     9   ar
    22     9    10   ar
    23    10    11   ar
    24    11    12    1
    25    12    30    1
    26    30    31    1
    27    31    32   ar
    28    32    42    1
    29    42    43    1
    30    32    33   ar
    31    33    34   ar
    32    34    35   ar
    33    35    36   ar
    34    36    37   ar
    35    37    38    1
    36    37    39   ar
    37    39    40   ar
    38    40    41   ar
    39    12    13   am
    40    13    14    2
    41    13     1    1
    42    20    15   ar
    43    11     6   ar
    44    41    31   ar
    45    41    35   ar
    46    28    29    1
    47    23    24    1
@<TRIPOS>MOLECULE
*****
 43 47 0 0 0
SMALL
GASTEIGER

@<TRIPOS>ATOM
      1 C          61.8081   86.0960   10.9255 C.3     1  UNL1        0.1696
      2 C          62.5243   84.9213   11.5232 C.3     1  UNL1        0.1275
      3 N          63.4325   84.8880   12.7165 N.am    1  UNL1       -0.2505
      4 C          63.9994   83.5438   13.0656 C.2     1  UNL1        0.2721
      5 O          64.9194   83.4003   14.2417 O.2     1  UNL1       -0.2679
      6 C          63.8489   86.0211   13.6069 C.ar    1  UNL1        0.0679
      7 C          64.7732   85.5542   14.6920 C.ar    1  UNL1        0.0162
      8 C          65.3085   86.5336   15.6941 C.ar    1  UNL1        0.0014
      9 C          64.9195   87.9799   15.6110 C.ar    1  UNL1        0.0014
     10 C          63.9951   88.4468   14.5259 C.ar    1  UNL1        0.0162
     11 C          63.4598   87.4674   13.5239 C.ar    1  UNL1        0.0679
     12 N          62.5583   88.1377   12.5299 N.am    1  UNL1       -0.2517
     13 C          61.8232   87.5275   11.3735 C.2     1  UNL1        0.2493
     14 O          60.9936   88.4737   10.5573 O.2     1  UNL1       -0.2727
     15 C          63.6462   82.3432   12.2387 C.ar    1  UNL1        0.1541
     16 C          62.9969   81.1540   12.8823 C.ar    1  UNL1        0.1226
     17 N          62.6437   79.9534   12.0555 N.ar    1  UNL1       -0.2390
     18 C          62.9399   79.9419   10.5850 C.ar    1  UNL1        0.1195
     19 C          63.5893   81.1310    9.9415 C.ar    1  UNL1        0.1196
     20 N          63.9424   82.3317   10.7683 N.ar    1  UNL1       -0.2360
     21 C          61.6135   85.6006    8.3825 C.2     1  UNL1        0.2371
     22 O          63.1046   85.6971    8.2497 O.2     1  UNL1       -0.2737
     23 N          60.9653   85.8001    9.7204 N.am    1  UNL1       -0.2959
     24 H          59.9868   85.7368    9.8076 H       1  UNL1        0.1499
     25 C          60.7708   85.3047    7.1775 C.3     1  UNL1        0.1316
     26 C          61.3448   84.5200    6.0352 C.3     1  UNL1        0.0270
     27 C          59.0225   87.1900    7.5503 C.3     1  UNL1        0.0862
     28 N          59.3541   85.7935    7.1147 N.3     1  UNL1       -0.2902
     29 H          59.0565   85.7098    6.1426 H       1  UNL1        0.1237
     30 C          62.3665   89.6136   12.7171 C.3     1  UNL1        0.1278
     31 C          63.3146   90.5809   12.0724 C.ar    1  UNL1        0.0320
     32 C          63.2143   90.8625   10.6026 C.ar    1  UNL1        0.1363
     33 C          64.1624   91.8298    9.9578 C.ar    1  UNL1        0.0366
     34 C          65.2107   92.5154   10.7831 C.ar    1  UNL1        0.0031
     35 C          65.3109   92.2338   12.2530 C.ar    1  UNL1        0.0004
     36 C          66.3592   92.9194   13.0782 C.ar    1  UNL1        0.0067
     37 C          66.4594   92.6378   14.5481 C.ar    1  UNL1        0.0346
     38 BR         67.5077   93.3234   15.3733 Br      1  UNL1       -0.0490
     39 C          65.5114   91.6705   15.1928 C.ar    1  UNL1        0.0067
     40 C          64.4631   90.9849   14.3676 C.ar    1  UNL1        0.0003
     41 C          64.3629   91.2665   12.8977 C.ar    1  UNL1        0.0006
     42 O          62.1661   90.1769    9.7773 O.3     1  UNL1       -0.4717
     43 C          60.7184   90.4500    9.4951 C.3     1  UNL1        0.2525
@<TRIPOS>BOND
     1    27    28    1
     2    28    25    1
     3    25    26    1
     4    25    21    1
     5    21    22    2
     6    21    23   am
     7     1    23    1
     8     1     2    1
     9     2     3    1
    10     3     4   am
    11     4     5    2
    12     4    15    1
    13    15    16   ar
    14    16    17   ar
    15    17    18   ar
    16    18    19   ar
    17    19    20   ar
    18     3     6    1
    19     6     7   ar
    20     7     8   ar
    21     8     9   ar
    22     9    10   ar
    23    10    11   ar
    24    11    12    1
    25    12    30    1
    26    30    31    1
    27    31    32   ar
    28    32    42    1
    29    42    43    1
    30    32    33   ar
    31    33    34   ar
    32    34    35   ar
    33    35    36   ar
    34    36    37   ar
    35    37    38    1
    36    37    39   ar
    37    39    40   ar
    38    40    41   ar
    39    12    13   am
    40    13    14    2
    41    13     1    1
    42    20    15   ar
    43    11     6   ar
    44    41    31   ar
    45    41    35   ar
    46    28    29    1
    47    23    24    1
@<TRIPOS>MOLECULE
*****
 43 47 0 0 0
SMALL
GASTEIGER

@<TRIPOS>ATOM
      1 C          59.8097   94.2494   -0.9049 C.3     1  UNL1        0.1696
      2 C          60.6024   93.8676    0.3100 C.3     1  UNL1        0.1275
      3 N          62.0395   94.1648    0.6202 N.am    1  UNL1       -0.2505
      4 C          62.5441   93.6404    1.9319 C.2     1  UNL1        0.2721
      5 O          63.9674   93.8825    2.3390 O.2     1  UNL1       -0.2679
      6 C          63.0390   94.9170   -0.2076 C.ar    1  UNL1        0.0679
      7 C          64.3733   94.9872    0.4739 C.ar    1  UNL1        0.0162
      8 C          65.5166   95.6983   -0.1872 C.ar    1  UNL1        0.0014
      9 C          65.3257   96.3391   -1.5298 C.ar    1  UNL1        0.0014
     10 C          63.9913   96.2690   -2.2114 C.ar    1  UNL1        0.0162
     11 C          62.8480   95.5579   -1.5503 C.ar    1  UNL1        0.0679
     12 N          61.6104   95.6048   -2.3967 N.am    1  UNL1       -0.2517
     13 C          60.2583   95.0225   -2.1095 C.2     1  UNL1        0.2493
     14 O          59.2171   95.2423   -3.1666 O.2     1  UNL1       -0.2727
     15 C          61.6253   92.8738    2.8365 C.ar    1  UNL1        0.1541
     16 C          60.1852   93.2753    2.9577 C.ar    1  UNL1        0.1226
     17 N          59.2664   92.5088    3.8622 N.ar    1  UNL1       -0.2390
     18 C          59.7878   91.3407    4.6457 C.ar    1  UNL1        0.1195
     19 C          61.2279   90.9392    4.5245 C.ar    1  UNL1        0.1196
     20 N          62.1467   91.7057    3.6199 N.ar    1  UNL1       -0.2360
     21 C          57.9197   92.7879   -1.9256 C.2     1  UNL1        0.2371
     22 O          58.8907   92.2284   -2.9227 O.2     1  UNL1       -0.2737
     23 N          58.3791   93.7983   -0.9167 N.am    1  UNL1       -0.2959
     24 H          57.7418   94.1655   -0.2623 H       1  UNL1        0.1499
     25 C          56.4891   92.3368   -1.9374 C.3     1  UNL1        0.1316
     26 C          55.3885   93.3270   -1.6960 C.3     1  UNL1        0.0270
     27 C          55.7007   90.4589   -3.5504 C.3     1  UNL1        0.0862
     28 N          56.1592   90.8957   -2.1906 N.3     1  UNL1       -0.2902
     29 H          57.0000   90.3592   -1.9770 H       1  UNL1        0.1237
     30 C          61.7426   96.3300   -3.7031 C.3     1  UNL1        0.1278
     31 C          61.4275   95.6236   -4.9884 C.ar    1  UNL1        0.0320
     32 C          62.4571   94.7430   -5.6320 C.ar    1  UNL1        0.1363
     33 C          62.1421   94.0366   -6.9172 C.ar    1  UNL1        0.0366
     34 C          60.7974   94.2108   -7.5587 C.ar    1  UNL1        0.0031
     35 C          59.7678   95.0915   -6.9150 C.ar    1  UNL1        0.0004
     36 C          58.4231   95.2658   -7.5565 C.ar    1  UNL1        0.0067
     37 C          57.3936   96.1464   -6.9128 C.ar    1  UNL1        0.0346
     38 BR         56.0489   96.3207   -7.5543 Br      1  UNL1       -0.0490
     39 C          57.7086   96.8528   -5.6276 C.ar    1  UNL1        0.0067
     40 C          59.0533   96.6785   -4.9861 C.ar    1  UNL1        0.0003
     41 C          60.0828   95.7979   -5.6298 C.ar    1  UNL1        0.0006
     42 O          63.8018   94.5687   -4.9906 O.3     1  UNL1       -0.4717
     43 C          64.6373   93.3765   -4.6291 C.3     1  UNL1        0.2525
@<TRIPOS>BOND
     1    27    28    1
     2    28    25    1
     3    25    26    1
     4    25    21    1
     5    21    22    2
     6    21    23   am
     7     1    23    1
     8     1     2    1
     9     2     3    1
    10     3     4   am
    11     4     5    2
    12     4    15    1
    13    15    16   ar
    14    16    17   ar
    15    17    18   ar
    16    18    19   ar
    17    19    20   ar
    18     3     6    1
    19     6     7   ar
    20     7     8   ar
    21     8     9   ar
    22     9    10   ar
    23    10    11   ar
    24    11    12    1
    25    12    30    1
    26    30    31    1
    27    31    32   ar
    28    32    42    1
    29    42    43    1
    30    32    33   ar
    31    33    34   ar
    32    34    35   ar
    33    35    36   ar
    34    36    37   ar
    35    37    38    1
    36    37    39   ar
    37    39    40   ar
    38    40    41   ar
    39    12    13   am
    40    13    14    2
    41    13     1    1
    42    20    15   ar
    43    11     6   ar
    44    41    31   ar
    45    41    35   ar
    46    28    29    1
    47    23    24    1
@<TRIPOS>MOLECULE
*****
 43 47 0 0 0
SMALL
GASTEIGER

@<TRIPOS>ATOM
      1 C          63.0161   86.0478   12.2601 C.3     1  UNL1        0.1696
      2 C          62.8733   84.8966   13.2112 C.3     1  UNL1        0.1275
      3 N          62.8575   84.9191   14.7109 N.am    1  UNL1       -0.2505
      4 C          62.6974   83.5861   15.3800 C.2     1  UNL1        0.2721
      5 O          62.6690   83.4970   16.8772 O.2     1  UNL1       -0.2679
      6 C          62.9808   86.0980   15.6301 C.ar    1  UNL1        0.0679
      7 C          62.9156   85.6801   17.0692 C.ar    1  UNL1        0.0162
      8 C          63.0198   86.7101   18.1547 C.ar    1  UNL1        0.0014
      9 C          63.1892   88.1579   17.8010 C.ar    1  UNL1        0.0014
     10 C          63.2544   88.5758   16.3619 C.ar    1  UNL1        0.0162
     11 C          63.1502   87.5459   15.2765 C.ar    1  UNL1        0.0679
     12 N          63.2382   88.1723   13.9163 N.am    1  UNL1       -0.2517
     13 C          63.1785   87.5057   12.5739 C.2     1  UNL1        0.2493
     14 O          63.2969   88.4173   11.3887 O.2     1  UNL1       -0.2727
     15 C          62.5656   82.3423   14.5520 C.ar    1  UNL1        0.1541
     16 C          63.7114   81.8841   13.6993 C.ar    1  UNL1        0.1226
     17 N          63.5797   80.6403   12.8713 N.ar    1  UNL1       -0.2390
     18 C          62.3022   79.8547   12.8961 C.ar    1  UNL1        0.1195
     19 C          61.1564   80.3128   13.7489 C.ar    1  UNL1        0.1196
     20 N          61.2881   81.5566   14.5769 N.ar    1  UNL1       -0.2360
     21 C          61.7865   86.0147    9.9717 C.2     1  UNL1        0.2371
     22 O          60.6018   86.6884   10.5985 O.2     1  UNL1       -0.2737
     23 N          62.9936   85.6945   10.8025 N.am    1  UNL1       -0.2959
     24 H          63.7711   85.2523   10.3911 H       1  UNL1        0.1499
     25 C          61.7640   85.6613    8.5141 C.3     1  UNL1        0.1316
     26 C          60.5558   85.9794    7.6838 C.3     1  UNL1        0.0270
     27 C          62.8501   84.4391    6.4951 C.3     1  UNL1        0.0862
     28 N          62.9495   84.9899    7.8868 N.3     1  UNL1       -0.2902
     29 H          63.7057   85.6744    7.8791 H       1  UNL1        0.1237
     30 C          63.4084   89.6625   13.8959 C.3     1  UNL1        0.1278
     31 C          63.2465   90.4184   12.6104 C.ar    1  UNL1        0.0320
     32 C          61.9471   90.3581   11.8636 C.ar    1  UNL1        0.1363
     33 C          61.7851   91.1140   10.5781 C.ar    1  UNL1        0.0366
     34 C          62.9226   91.9301   10.0395 C.ar    1  UNL1        0.0031
     35 C          64.2221   91.9904   10.7864 C.ar    1  UNL1        0.0004
     36 C          65.3596   92.8065   10.2479 C.ar    1  UNL1        0.0067
     37 C          66.6589   92.8667   10.9948 C.ar    1  UNL1        0.0346
     38 BR         67.7964   93.6828   10.4563 Br      1  UNL1       -0.0490
     39 C          66.8209   92.1108   12.2803 C.ar    1  UNL1        0.0067
     40 C          65.6834   91.2947   12.8188 C.ar    1  UNL1        0.0003
     41 C          64.3840   91.2345   12.0719 C.ar    1  UNL1        0.0006
     42 O          60.8095   89.5420   12.4020 O.3     1  UNL1       -0.4717
     43 C          59.3269   89.5433   12.1748 C.3     1  UNL1        0.2525
@<TRIPOS>BOND
     1    27    28    1
     2    28    25    1
     3    25    26    1
     4    25    21    1
     5    21    22    2
     6    21    23   am
     7     1    23    1
     8     1     2    1
     9     2     3    1
    10     3     4   am
    11     4     5    2
    12     4    15    1
    13    15    16   ar
    14    16    17   ar
    15    17    18   ar
    16    18    19   ar
    17    19    20   ar
    18     3     6    1
    19     6     7   ar
    20     7     8   ar
    21     8     9   ar
    22     9    10   ar
    23    10    11   ar
    24    11    12    1
    25    12    30    1
    26    30    31    1
    27    31    32   ar
    28    32    42    1
    29    42    43    1
    30    32    33   ar
    31    33    34   ar
    32    34    35   ar
    33    35    36   ar
    34    36    37   ar
    35    37    38    1
    36    37    39   ar
    37    39    40   ar
    38    40    41   ar
    39    12    13   am
    40    13    14    2
    41    13     1    1
    42    20    15   ar
    43    11     6   ar
    44    41    31   ar
    45    41    35   ar
    46    28    29    1
    47    23    24    1
@<TRIPOS>MOLECULE
*****
 43 47 0 0 0
SMALL
GASTEIGER

@<TRIPOS>ATOM
      1 C          59.5325   92.3591   -0.5084 C.3     1  UNL1        0.1696
      2 C          59.9560   92.2231    0.9242 C.3     1  UNL1        0.1275
      3 N          61.3255   92.3859    1.5141 N.am    1  UNL1       -0.2505
      4 C          61.4237   92.1829    2.9970 C.2     1  UNL1        0.2721
      5 O          62.7483   92.3225    3.6871 O.2     1  UNL1       -0.2679
      6 C          62.6098   92.7248    0.8171 C.ar    1  UNL1        0.0679
      7 C          63.7562   92.7908    1.7822 C.ar    1  UNL1        0.0162
      8 C          65.1345   93.1166    1.2883 C.ar    1  UNL1        0.0014
      9 C          65.3665   93.3765   -0.1706 C.ar    1  UNL1        0.0014
     10 C          64.2201   93.3105   -1.1357 C.ar    1  UNL1        0.0162
     11 C          62.8418   92.9846   -0.6419 C.ar    1  UNL1        0.0679
     12 N          61.8467   92.9697   -1.7642 N.am    1  UNL1       -0.2517
     13 C          60.3740   92.6913   -1.7049 C.2     1  UNL1        0.2493
     14 O          59.6465   92.7534   -3.0151 O.2     1  UNL1       -0.2727
     15 C          60.1973   91.8403    3.7900 C.ar    1  UNL1        0.1541
     16 C          60.2781   90.8328    4.8983 C.ar    1  UNL1        0.1226
     17 N          59.0518   90.4901    5.6912 N.ar    1  UNL1       -0.2390
     18 C          57.7447   91.1551    5.3758 C.ar    1  UNL1        0.1195
     19 C          57.6640   92.1626    4.2676 C.ar    1  UNL1        0.1196
     20 N          58.8903   92.5052    3.4746 N.ar    1  UNL1       -0.2360
     21 C          57.2309   93.2485   -1.3216 C.2     1  UNL1        0.2371
     22 O          57.8446   94.5906   -1.5907 O.2     1  UNL1       -0.2737
     23 N          58.0749   92.1328   -0.7804 N.am    1  UNL1       -0.2959
     24 H          57.6721   91.2520   -0.6038 H       1  UNL1        0.1499
     25 C          55.7733   93.0223   -1.5937 C.3     1  UNL1        0.1316
     26 C          54.8300   94.1876   -1.6440 C.3     1  UNL1        0.0270
     27 C          55.6855   90.8578   -3.0279 C.3     1  UNL1        0.0862
     28 N          55.2588   91.6308   -1.8154 N.3     1  UNL1       -0.2902
     29 H          55.5372   91.0810   -1.0026 H       1  UNL1        0.1237
     30 C          62.3973   93.2734   -3.1261 C.3     1  UNL1        0.1278
     31 C          63.3017   94.4538   -3.3234 C.ar    1  UNL1        0.0320
     32 C          63.1399   95.6740   -2.4662 C.ar    1  UNL1        0.1363
     33 C          64.0443   96.8544   -2.6635 C.ar    1  UNL1        0.0366
     34 C          65.1103   96.8145   -3.7180 C.ar    1  UNL1        0.0031
     35 C          65.2720   95.5942   -4.5752 C.ar    1  UNL1        0.0004
     36 C          66.3381   95.5543   -5.6297 C.ar    1  UNL1        0.0067
     37 C          66.4997   94.3340   -6.4869 C.ar    1  UNL1        0.0346
     38 BR         67.5658   94.2941   -7.5414 Br      1  UNL1       -0.0490
     39 C          65.5954   93.1536   -6.2896 C.ar    1  UNL1        0.0067
     40 C          64.5294   93.1936   -5.2351 C.ar    1  UNL1        0.0003
     41 C          64.3677   94.4138   -4.3779 C.ar    1  UNL1        0.0006
     42 O          62.0739   95.7140   -1.4117 O.3     1  UNL1       -0.4717
     43 C          61.9258   96.4382   -0.1065 C.3     1  UNL1        0.2525
@<TRIPOS>BOND
     1    27    28    1
     2    28    25    1
     3    25    26    1
     4    25    21    1
     5    21    22    2
     6    21    23   am
     7     1    23    1
     8     1     2    1
     9     2     3    1
    10     3     4   am
    11     4     5    2
    12     4    15    1
    13    15    16   ar
    14    16    17   ar
    15    17    18   ar
    16    18    19   ar
    17    19    20   ar
    18     3     6    1
    19     6     7   ar
    20     7     8   ar
    21     8     9   ar
    22     9    10   ar
    23    10    11   ar
    24    11    12    1
    25    12    30    1
    26    30    31    1
    27    31    32   ar
    28    32    42    1
    29    42    43    1
    30    32    33   ar
    31    33    34   ar
    32    34    35   ar
    33    35    36   ar
    34    36    37   ar
    35    37    38    1
    36    37    39   ar
    37    39    40   ar
    38    40    41   ar
    39    12    13   am
    40    13    14    2
    41    13     1    1
    42    20    15   ar
    43    11     6   ar
    44    41    31   ar
    45    41    35   ar
    46    28    29    1
    47    23    24    1
@<TRIPOS>MOLECULE
*****
 43 47 0 0 0
SMALL
GASTEIGER

@<TRIPOS>ATOM
      1 C          61.5925   95.4174   -3.4600 C.3     1  UNL1        0.1696
      2 C          61.9662   95.2363   -2.0186 C.3     1  UNL1        0.1275
      3 N          61.2289   94.4874   -0.9483 N.am    1  UNL1       -0.2505
      4 C          61.8694   94.4919    0.4080 C.2     1  UNL1        0.2721
      5 O          61.2139   93.7724    1.5495 O.2     1  UNL1       -0.2679
      6 C          59.9359   93.7346   -1.0550 C.ar    1  UNL1        0.0679
      7 C          59.5456   93.1268    0.2596 C.ar    1  UNL1        0.0162
      8 C          58.2802   92.3291    0.3709 C.ar    1  UNL1        0.0014
      9 C          57.4051   92.1393   -0.8325 C.ar    1  UNL1        0.0014
     10 C          57.7953   92.7471   -2.1471 C.ar    1  UNL1        0.0162
     11 C          59.0607   93.5448   -2.2583 C.ar    1  UNL1        0.0679
     12 N          59.2625   94.0609   -3.6522 N.am    1  UNL1       -0.2517
     13 C          60.3892   94.8943   -4.1871 C.2     1  UNL1        0.2493
     14 O          60.3010   95.2518   -5.6411 O.2     1  UNL1       -0.2727
     15 C          63.1655   95.2158    0.6231 C.ar    1  UNL1        0.1541
     16 C          63.3270   96.1309    1.8005 C.ar    1  UNL1        0.1226
     17 N          64.6229   96.8549    2.0156 N.ar    1  UNL1       -0.2390
     18 C          65.7575   96.6637    1.0532 C.ar    1  UNL1        0.1195
     19 C          65.5960   95.7487   -0.1243 C.ar    1  UNL1        0.1196
     20 N          64.3000   95.0247   -0.3394 N.ar    1  UNL1       -0.2360
     21 C          63.6756   95.5535   -5.0066 C.2     1  UNL1        0.2371
     22 O          63.8470   94.0666   -4.9067 O.2     1  UNL1       -0.2737
     23 N          62.5484   96.2289   -4.2832 N.am    1  UNL1       -0.2959
     24 H          62.4360   97.2047   -4.3488 H       1  UNL1        0.1499
     25 C          64.6316   96.3650   -5.8298 C.3     1  UNL1        0.1316
     26 C          64.2687   96.7568   -7.2315 C.3     1  UNL1        0.0270
     27 C          67.1816   96.7770   -6.1080 C.3     1  UNL1        0.0862
     28 N          65.9503   96.7847   -5.2513 N.3     1  UNL1       -0.2902
     29 H          65.8329   97.7397   -4.9130 H       1  UNL1        0.1237
     30 C          58.1966   93.6953   -4.6422 C.3     1  UNL1        0.1278
     31 C          57.2660   94.7489   -5.1659 C.ar    1  UNL1        0.0320
     32 C          57.4381   95.2756   -6.5598 C.ar    1  UNL1        0.1363
     33 C          56.5076   96.3292   -7.0835 C.ar    1  UNL1        0.0366
     34 C          55.4051   96.8559   -6.2134 C.ar    1  UNL1        0.0031
     35 C          55.2332   96.3291   -4.8195 C.ar    1  UNL1        0.0004
     36 C          54.1307   96.8558   -3.9493 C.ar    1  UNL1        0.0067
     37 C          53.9588   96.3290   -2.5555 C.ar    1  UNL1        0.0346
     38 BR         52.8563   96.8557   -1.6853 Br      1  UNL1       -0.0490
     39 C          54.8892   95.2754   -2.0317 C.ar    1  UNL1        0.0067
     40 C          55.9917   94.7488   -2.9019 C.ar    1  UNL1        0.0003
     41 C          56.1636   95.2755   -4.2957 C.ar    1  UNL1        0.0006
     42 O          58.5405   94.7489   -7.4300 O.3     1  UNL1       -0.4717
     43 C          59.2228   93.4192   -7.5571 C.3     1  UNL1        0.2525
@<TRIPOS>BOND
     1    27    28    1
     2    28    25    1
     3    25    26    1
     4    25    21    1
     5    21    22    2
     6    21    23   am
     7     1    23    1
     8     1     2    1
     9     2     3    1
    10     3     4   am
    11     4     5    2
    12     4    15    1
    13    15    16   ar
    14    16    17   ar
    15    17    18   ar
    16    18    19   ar
    17    19    20   ar
    18     3     6    1
    19     6     7   ar
    20     7     8   ar
    21     8     9   ar
    22     9    10   ar
    23    10    11   ar
    24    11    12    1
    25    12    30    1
    26    30    31    1
    27    31    32   ar
    28    32    42    1
    29    42    43    1
    30    32    33   ar
    31    33    34   ar
    32    34    35   ar
    33    35    36   ar
    34    36    37   ar
    35    37    38    1
    36    37    39   ar
    37    39    40   ar
    38    40    41   ar
    39    12    13   am
    40    13    14    2
    41    13     1    1
    42    20    15   ar
    43    11     6   ar
    44    41    31   ar
    45    41    35   ar
    46    28    29    1
    47    23    24    1
@<TRIPOS>MOLECULE
*****
 43 47 0 0 0
SMALL
GASTEIGER

@<TRIPOS>ATOM
      1 C          56.3827   92.8886   -4.1733 C.3     1  UNL1        0.1696
      2 C          55.5348   93.9596   -3.5534 C.3     1  UNL1        0.1275
      3 N          55.8799   94.8931   -2.4311 N.am    1  UNL1       -0.2505
      4 C          54.8047   95.8616   -2.0363 C.2     1  UNL1        0.2721
      5 O          55.0471   96.8392   -0.9247 O.2     1  UNL1       -0.2679
      6 C          57.1580   94.9862   -1.6515 C.ar    1  UNL1        0.0679
      7 C          57.0869   96.0625   -0.6092 C.ar    1  UNL1        0.0162
      8 C          58.2646   96.3215    0.2830 C.ar    1  UNL1        0.0014
      9 C          59.5133   95.5041    0.1329 C.ar    1  UNL1        0.0014
     10 C          59.5844   94.4277   -0.9094 C.ar    1  UNL1        0.0162
     11 C          58.4067   94.1688   -1.8016 C.ar    1  UNL1        0.0679
     12 N          58.6857   93.0564   -2.7684 N.am    1  UNL1       -0.2517
     13 C          57.7850   92.4866   -3.8239 C.2     1  UNL1        0.2493
     14 O          58.3629   91.3669   -4.6376 O.2     1  UNL1       -0.2727
     15 C          53.4869   95.8524   -2.7529 C.ar    1  UNL1        0.1541
     16 C          52.2601   95.3378   -2.0602 C.ar    1  UNL1        0.1226
     17 N          50.9424   95.3286   -2.7768 N.ar    1  UNL1       -0.2390
     18 C          50.8516   95.8341   -4.1861 C.ar    1  UNL1        0.1195
     19 C          52.0784   96.3488   -4.8788 C.ar    1  UNL1        0.1196
     20 N          53.3961   96.3580   -4.1622 N.ar    1  UNL1       -0.2360
     21 C          55.2370   90.7269   -5.0475 C.2     1  UNL1        0.2371
     22 O          55.3692   90.1070   -3.6880 O.2     1  UNL1       -0.2737
     23 N          55.7438   92.1177   -5.2901 N.am    1  UNL1       -0.2959
     24 H          55.6570   92.5246   -6.1824 H       1  UNL1        0.1499
     25 C          54.5981   89.9560   -6.1644 C.3     1  UNL1        0.1316
     26 C          55.1321   90.0774   -7.5610 C.3     1  UNL1        0.0270
     27 C          52.0478   89.4814   -6.3067 C.3     1  UNL1        0.0862
     28 N          53.4253   89.0637   -5.8849 N.3     1  UNL1       -0.2902
     29 H          53.6166   88.1733   -6.3442 H       1  UNL1        0.1237
     30 C          60.0453   92.4310   -2.6662 C.3     1  UNL1        0.1278
     31 C          61.2698   93.2972   -2.6472 C.ar    1  UNL1        0.0320
     32 C          62.1829   93.2789   -1.4572 C.ar    1  UNL1        0.1363
     33 C          63.4074   94.1450   -1.4381 C.ar    1  UNL1        0.0366
     34 C          63.7188   95.0295   -2.6089 C.ar    1  UNL1        0.0031
     35 C          62.8057   95.0478   -3.7988 C.ar    1  UNL1        0.0004
     36 C          63.1172   95.9322   -4.9697 C.ar    1  UNL1        0.0067
     37 C          62.2040   95.9505   -6.1595 C.ar    1  UNL1        0.0346
     38 BR         62.5155   96.8349   -7.3303 Br      1  UNL1       -0.0490
     39 C          60.9795   95.0843   -6.1787 C.ar    1  UNL1        0.0067
     40 C          60.6682   94.1999   -5.0078 C.ar    1  UNL1        0.0003
     41 C          61.5812   94.1816   -3.8180 C.ar    1  UNL1        0.0006
     42 O          61.8715   92.3945   -0.2864 O.3     1  UNL1       -0.4717
     43 C          62.0553   92.5255    1.1965 C.3     1  UNL1        0.2525
@<TRIPOS>BOND
     1    27    28    1
     2    28    25    1
     3    25    26    1
     4    25    21    1
     5    21    22    2
     6    21    23   am
     7     1    23    1
     8     1     2    1
     9     2     3    1
    10     3     4   am
    11     4     5    2
    12     4    15    1
    13    15    16   ar
    14    16    17   ar
    15    17    18   ar
    16    18    19   ar
    17    19    20   ar
    18     3     6    1
    19     6     7   ar
    20     7     8   ar
    21     8     9   ar
    22     9    10   ar
    23    10    11   ar
    24    11    12    1
    25    12    30    1
    26    30    31    1
    27    31    32   ar
    28    32    42    1
    29    42    43    1
    30    32    33   ar
    31    33    34   ar
    32    34    35   ar
    33    35    36   ar
    34    36    37   ar
    35    37    38    1
    36    37    39   ar
    37    39    40   ar
    38    40    41   ar
    39    12    13   am
    40    13    14    2
    41    13     1    1
    42    20    15   ar
    43    11     6   ar
    44    41    31   ar
    45    41    35   ar
    46    28    29    1
    47    23    24    1
