@<TRIPOS>MOLECULE
*****
 32 34 0 0 0
SMALL
GASTEIGER

@<TRIPOS>ATOM
      1 N          65.3868   92.8491   11.6752 N.3     1  UNL1       -0.1594
      2 C          65.6244   92.3767   13.0789 C.3     1  UNL1        0.0958
      3 C          64.8585   91.2037   13.6151 C.3     1  UNL1        0.0248
      4 C          63.8552   90.5031   12.7477 C.3     1  UNL1        0.0382
      5 C          63.6176   90.9756   11.3441 C.3     1  UNL1        0.0248
      6 C          64.3834   92.1486   10.8078 C.3     1  UNL1        0.0958
      7 C          63.7290   89.6892   14.0014 C.ar    1  UNL1       -0.0212
      8 C          64.2735   88.2922   14.0466 C.ar    1  UNL1       -0.0042
      9 C          64.1474   87.4783   15.3002 C.ar    1  UNL1       -0.0003
     10 C          63.4768   88.0613   16.5086 C.ar    1  UNL1       -0.0000
     11 C          62.9324   89.4583   16.4635 C.ar    1  UNL1       -0.0003
     12 C          63.0585   90.2723   15.2099 C.ar    1  UNL1       -0.0042
     13 S          66.1526   94.0222   11.1390 S.O2    1  UNL1        0.0438
     14 O          66.0949   94.6764   12.4875 O.2     1  UNL1       -0.1573
     15 O          66.2103   93.3679    9.7904 O.2     1  UNL1       -0.1573
     16 C          66.9184   95.1952   10.6027 C.3     1  UNL1        0.1691
     17 C          67.3584   96.3787    8.3321 C.3     1  UNL1        0.0019
     18 C          67.4585   95.1621    9.2037 C.3     1  UNL1        0.0270
     19 C          62.8079   89.5199   12.3157 C.3     1  UNL1        0.0756
     20 C          61.3795   89.9569   12.1796 C.3     1  UNL1        0.0216
     21 N          63.1892   88.0997   12.0198 N.am    1  UNL1       -0.3022
     22 C          62.1407   87.1145   11.5955 C.2     1  UNL1        0.2466
     23 O          60.7110   87.5495   11.4671 O.2     1  UNL1       -0.2701
     24 H          64.1276   87.8142   12.1041 H       1  UNL1        0.1497
     25 C          62.5220   85.6943   11.2996 C.ar    1  UNL1        0.0640
     26 C          62.6243   84.6971   12.4155 C.ar    1  UNL1        0.0062
     27 C          63.0055   83.2769   12.1196 C.ar    1  UNL1        0.0116
     28 C          63.2844   82.8537   10.7078 C.ar    1  UNL1        0.0585
     29 CL         63.6657   81.4335   10.4119 Cl      1  UNL1       -0.0822
     30 C          63.1821   83.8509    9.5919 C.ar    1  UNL1        0.0229
     31 C          62.8009   85.2711    9.8878 C.ar    1  UNL1        0.0629
     32 CL         62.6985   86.2683    8.7719 Cl      1  UNL1       -0.0821
@<TRIPOS>BOND
     1    17    18    1
     2    18    16    1
     3    16    13    1
     4    13    14    2
     5    13    15    2
     6    13     1    1
     7     1     2    1
     8     2     3    1
     9     3     4    1
    10     4     7    1
    11     7     8   ar
    12     8     9   ar
    13     9    10   ar
    14    10    11   ar
    15    11    12   ar
    16     4    19    1
    17    19    20    1
    18    19    21    1
    19    21    22   am
    20    22    23    2
    21    22    25    1
    22    25    26   ar
    23    26    27   ar
    24    27    28   ar
    25    28    29    1
    26    28    30   ar
    27    30    31   ar
    28    31    32    1
    29     4     5    1
    30     5     6    1
    31     6     1    1
    32    12     7   ar
    33    31    25   ar
    34    21    24    1
@<TRIPOS>MOLECULE
*****
 32 34 0 0 0
SMALL
GASTEIGER

@<TRIPOS>ATOM
      1 N          65.5613   92.8308   11.1323 N.3     1  UNL1       -0.1594
      2 C          65.8851   92.2777   12.4885 C.3     1  UNL1        0.0958
      3 C          65.0346   91.1920   13.0784 C.3     1  UNL1        0.0248
      4 C          63.8603   90.6594   12.3121 C.3     1  UNL1        0.0382
      5 C          63.5365   91.2125   10.9559 C.3     1  UNL1        0.0248
      6 C          64.3870   92.2981   10.3660 C.3     1  UNL1        0.0958
      7 C          63.7648   89.8201   13.5517 C.ar    1  UNL1       -0.0212
      8 C          63.3723   90.4497   14.8553 C.ar    1  UNL1       -0.0042
      9 C          63.2768   89.6105   16.0949 C.ar    1  UNL1       -0.0003
     10 C          63.5737   88.1416   16.0307 C.ar    1  UNL1       -0.0000
     11 C          63.9662   87.5119   14.7271 C.ar    1  UNL1       -0.0003
     12 C          64.0618   88.3512   13.4875 C.ar    1  UNL1       -0.0042
     13 S          66.4118   93.9164   10.5424 S.O2    1  UNL1        0.0438
     14 O          65.2236   94.8315   10.5136 O.2     1  UNL1       -0.1573
     15 O          67.6000   93.0013   10.5713 O.2     1  UNL1       -0.1573
     16 C          67.2623   95.0021    9.9526 C.3     1  UNL1        0.1691
     17 C          67.1019   96.7218    8.0117 C.3     1  UNL1        0.0019
     18 C          67.1857   95.3008    8.4846 C.3     1  UNL1        0.0270
     19 C          62.6528   89.8353   11.9763 C.3     1  UNL1        0.0756
     20 C          61.4228   89.9244   12.8302 C.3     1  UNL1        0.0216
     21 N          62.6752   88.9220   10.7866 N.am    1  UNL1       -0.3022
     22 C          61.6544   87.8304   10.6596 C.2     1  UNL1        0.2466
     23 O          60.6111   87.6520   11.7225 O.2     1  UNL1       -0.2701
     24 H          63.3600   89.0392   10.0890 H       1  UNL1        0.1497
     25 C          61.6769   86.9171    9.4699 C.ar    1  UNL1        0.0640
     26 C          62.9000   86.1008    9.1740 C.ar    1  UNL1        0.0062
     27 C          62.9224   85.1876    7.9843 C.ar    1  UNL1        0.0116
     28 C          61.7218   85.0906    7.0904 C.ar    1  UNL1        0.0585
     29 CL         61.7443   84.1774    5.9007 Cl      1  UNL1       -0.0822
     30 C          60.4986   85.9070    7.3863 C.ar    1  UNL1        0.0229
     31 C          60.4762   86.8202    8.5760 C.ar    1  UNL1        0.0629
     32 CL         59.2531   87.6366    8.8719 Cl      1  UNL1       -0.0821
@<TRIPOS>BOND
     1    17    18    1
     2    18    16    1
     3    16    13    1
     4    13    14    2
     5    13    15    2
     6    13     1    1
     7     1     2    1
     8     2     3    1
     9     3     4    1
    10     4     7    1
    11     7     8   ar
    12     8     9   ar
    13     9    10   ar
    14    10    11   ar
    15    11    12   ar
    16     4    19    1
    17    19    20    1
    18    19    21    1
    19    21    22   am
    20    22    23    2
    21    22    25    1
    22    25    26   ar
    23    26    27   ar
    24    27    28   ar
    25    28    29    1
    26    28    30   ar
    27    30    31   ar
    28    31    32    1
    29     4     5    1
    30     5     6    1
    31     6     1    1
    32    12     7   ar
    33    31    25   ar
    34    21    24    1
@<TRIPOS>MOLECULE
*****
 32 34 0 0 0
SMALL
GASTEIGER

@<TRIPOS>ATOM
      1 N          65.4058   92.8253   11.1422 N.3     1  UNL1       -0.1594
      2 C          64.3238   92.3786   10.2043 C.3     1  UNL1        0.0958
      3 C          63.4094   91.2554   10.5946 C.3     1  UNL1        0.0248
      4 C          63.5771   90.5789   11.9228 C.3     1  UNL1        0.0382
      5 C          64.6591   91.0255   12.8607 C.3     1  UNL1        0.0248
      6 C          65.5734   92.1488   12.4704 C.3     1  UNL1        0.0958
      7 C          62.4128   89.8037   11.3808 C.ar    1  UNL1       -0.0212
      8 C          62.6089   88.8633   10.2288 C.ar    1  UNL1       -0.0042
      9 C          61.4448   88.0882    9.6867 C.ar    1  UNL1       -0.0003
     10 C          60.0844   88.2535   10.2968 C.ar    1  UNL1       -0.0000
     11 C          59.8882   89.1939   11.4488 C.ar    1  UNL1       -0.0003
     12 C          61.0525   89.9690   11.9908 C.ar    1  UNL1       -0.0042
     13 S          66.3201   93.9485   10.7519 S.O2    1  UNL1        0.0438
     14 O          65.1314   94.8233   10.4843 O.2     1  UNL1       -0.1573
     15 O          67.5089   93.0738   11.0195 O.2     1  UNL1       -0.1573
     16 C          67.2345   95.0717   10.3616 C.3     1  UNL1        0.1691
     17 C          67.2728   96.5817    8.2478 C.3     1  UNL1        0.0019
     18 C          67.5939   95.2799    8.9203 C.3     1  UNL1        0.0270
     19 C          63.3404   89.6331   13.0628 C.3     1  UNL1        0.0756
     20 C          63.3807   90.1362   14.4753 C.3     1  UNL1        0.0216
     21 N          63.0634   88.1844   12.7903 N.am    1  UNL1       -0.3022
     22 C          63.7403   87.1245   13.6079 C.2     1  UNL1        0.2466
     23 O          64.6942   87.5136   14.6981 O.2     1  UNL1       -0.2701
     24 H          62.4372   87.9291   12.0747 H       1  UNL1        0.1497
     25 C          63.4633   85.6758   13.3353 C.ar    1  UNL1        0.0640
     26 C          63.0225   85.2406   11.9692 C.ar    1  UNL1        0.0062
     27 C          62.7455   83.7918   11.6967 C.ar    1  UNL1        0.0116
     28 C          62.9092   82.7782   12.7902 C.ar    1  UNL1        0.0585
     29 CL         62.6322   81.3295   12.5176 Cl      1  UNL1       -0.0822
     30 C          63.3499   83.2135   14.1564 C.ar    1  UNL1        0.0229
     31 C          63.6270   84.6622   14.4289 C.ar    1  UNL1        0.0629
     32 CL         64.0677   85.0975   15.7950 Cl      1  UNL1       -0.0821
@<TRIPOS>BOND
     1    17    18    1
     2    18    16    1
     3    16    13    1
     4    13    14    2
     5    13    15    2
     6    13     1    1
     7     1     2    1
     8     2     3    1
     9     3     4    1
    10     4     7    1
    11     7     8   ar
    12     8     9   ar
    13     9    10   ar
    14    10    11   ar
    15    11    12   ar
    16     4    19    1
    17    19    20    1
    18    19    21    1
    19    21    22   am
    20    22    23    2
    21    22    25    1
    22    25    26   ar
    23    26    27   ar
    24    27    28   ar
    25    28    29    1
    26    28    30   ar
    27    30    31   ar
    28    31    32    1
    29     4     5    1
    30     5     6    1
    31     6     1    1
    32    12     7   ar
    33    31    25   ar
    34    21    24    1
@<TRIPOS>MOLECULE
*****
 32 34 0 0 0
SMALL
GASTEIGER

@<TRIPOS>ATOM
      1 N          62.9920   84.4822   11.5227 N.3     1  UNL1       -0.1594
      2 C          62.2766   84.4849   10.2044 C.3     1  UNL1        0.0958
      3 C          61.5516   85.7158    9.7469 C.3     1  UNL1        0.0248
      4 C          61.5419   86.9440   10.6079 C.3     1  UNL1        0.0382
      5 C          62.2573   86.9414   11.9263 C.3     1  UNL1        0.0248
      6 C          62.9824   85.7105   12.3837 C.3     1  UNL1        0.0958
      7 C          60.7246   87.4321    9.4487 C.ar    1  UNL1       -0.0212
      8 C          59.8436   86.4783    8.6977 C.ar    1  UNL1       -0.0042
      9 C          59.0263   86.9663    7.5385 C.ar    1  UNL1       -0.0003
     10 C          59.0900   88.4082    7.1303 C.ar    1  UNL1       -0.0000
     11 C          59.9709   89.3622    7.8812 C.ar    1  UNL1       -0.0003
     12 C          60.7883   88.8741    9.0404 C.ar    1  UNL1       -0.0042
     13 S          63.7170   83.2514   11.9802 S.O2    1  UNL1        0.0438
     14 O          63.7764   83.8041   13.3734 O.2     1  UNL1       -0.1573
     15 O          63.6577   82.6987   10.5870 O.2     1  UNL1       -0.1573
     16 C          64.4421   82.0205   12.4376 C.3     1  UNL1        0.1691
     17 C          62.4963   80.4389   13.1177 C.3     1  UNL1        0.0019
     18 C          63.8036   81.1017   13.4366 C.3     1  UNL1        0.0270
     19 C          61.2484   88.3418   11.0663 C.3     1  UNL1        0.0756
     20 C          59.9237   88.6632   11.6923 C.3     1  UNL1        0.0216
     21 N          62.2796   89.4182   10.8987 N.am    1  UNL1       -0.3022
     22 C          62.8257   90.1276   12.1022 C.2     1  UNL1        0.2466
     23 O          62.3406   89.7607   13.4733 O.2     1  UNL1       -0.2701
     24 H          62.5980   89.6590    9.9988 H       1  UNL1        0.1497
     25 C          63.8569   91.2040   11.9346 C.ar    1  UNL1        0.0640
     26 C          64.0019   91.9050   10.6164 C.ar    1  UNL1        0.0062
     27 C          65.0330   92.9813   10.4488 C.ar    1  UNL1        0.0116
     28 C          65.9193   93.3567   11.5993 C.ar    1  UNL1        0.0585
     29 CL         66.9504   94.4330   11.4317 Cl      1  UNL1       -0.0822
     30 C          65.7743   92.6556   12.9176 C.ar    1  UNL1        0.0229
     31 C          64.7431   91.5793   13.0851 C.ar    1  UNL1        0.0629
     32 CL         64.5981   90.8782   14.4033 Cl      1  UNL1       -0.0821
@<TRIPOS>BOND
     1    17    18    1
     2    18    16    1
     3    16    13    1
     4    13    14    2
     5    13    15    2
     6    13     1    1
     7     1     2    1
     8     2     3    1
     9     3     4    1
    10     4     7    1
    11     7     8   ar
    12     8     9   ar
    13     9    10   ar
    14    10    11   ar
    15    11    12   ar
    16     4    19    1
    17    19    20    1
    18    19    21    1
    19    21    22   am
    20    22    23    2
    21    22    25    1
    22    25    26   ar
    23    26    27   ar
    24    27    28   ar
    25    28    29    1
    26    28    30   ar
    27    30    31   ar
    28    31    32    1
    29     4     5    1
    30     5     6    1
    31     6     1    1
    32    12     7   ar
    33    31    25   ar
    34    21    24    1
