@<TRIPOS>MOLECULE
*****
 33 37 0 0 0
SMALL
GASTEIGER

@<TRIPOS>ATOM
      1 C          62.9917   86.1849   12.5041 C.2     1  UNL1        0.2507
      2 O          63.5315   87.0616   13.5949 O.2     1  UNL1       -0.2698
      3 N          62.2671   86.7950   11.3410 N.am    1  UNL1       -0.2723
      4 C          61.7272   85.9182   10.2502 C.3     1  UNL1        0.1257
      5 C          61.0025   86.5284    9.0871 C.3     1  UNL1        0.1637
      6 O          60.8178   88.0152    9.0149 O.3     1  UNL1       -0.3502
      7 C          61.3577   88.8919   10.1057 C.3     1  UNL1        0.1622
      8 C          62.0823   88.2818   11.2688 C.3     1  UNL1        0.1096
      9 C          63.5348   82.4150   11.3892 C.ar    1  UNL1        0.1390
     10 C          63.5459   81.7244   12.7207 C.ar    1  UNL1        0.0385
     11 C          63.3722   82.5206   13.9800 C.ar    1  UNL1        0.0242
     12 C          63.1875   84.0074   13.9078 C.ar    1  UNL1        0.1074
     13 C          63.1764   84.6980   12.5763 C.ar    1  UNL1        0.0759
     14 C          63.3501   83.9018   11.3170 C.ar    1  UNL1        0.0430
     15 N          63.0138   84.8037   15.1671 N.ar    1  UNL1       -0.1477
     16 N          61.7130   85.0895   15.8572 N.ar    1  UNL1       -0.1447
     17 C          62.0057   85.9164   17.0741 C.ar    1  UNL1        0.1446
     18 C          63.4874   86.1416   17.1360 C.ar    1  UNL1        0.1446
     19 N          64.1104   85.4539   15.9575 N.ar    1  UNL1       -0.1447
     20 C          63.0965   80.2541   10.0150 C.3     1  UNL1        0.2525
     21 O          63.7085   81.6187   10.1299 O.3     1  UNL1       -0.4714
     22 C          62.6222   89.1585   12.3596 C.3     1  UNL1        0.0488
     23 C          63.5339   90.3007   12.0217 C.ar    1  UNL1       -0.0189
     24 C          63.4295   90.9735   10.6852 C.ar    1  UNL1       -0.0041
     25 C          64.3413   92.1158   10.3473 C.ar    1  UNL1        0.0013
     26 C          65.3574   92.5850   11.3459 C.ar    1  UNL1        0.0209
     27 C          65.4618   91.9121   12.6825 C.ar    1  UNL1        0.1026
     28 C          64.5500   90.7700   13.0204 C.ar    1  UNL1        0.0167
     29 N          66.4779   92.3814   13.6811 N.ar    1  UNL1       -0.1478
     30 N          66.1894   93.1400   14.9426 N.ar    1  UNL1       -0.1447
     31 C          67.4941   93.4019   15.6347 C.ar    1  UNL1        0.1446
     32 C          68.5890   92.8052   14.8011 C.ar    1  UNL1        0.1446
     33 N          67.9610   92.1744   13.5937 N.ar    1  UNL1       -0.1447
@<TRIPOS>BOND
     1    20    21    1
     2    21     9    1
     3     9    10   ar
     4    10    11   ar
     5    11    12   ar
     6    12    15    1
     7    15    16   ar
     8    16    17   ar
     9    17    18   ar
    10    18    19   ar
    11    12    13   ar
    12    13     1    1
    13     1     2    2
    14     1     3   am
    15     3     4    1
    16     4     5    1
    17     5     6    1
    18     6     7    1
    19     7     8    1
    20     8    22    1
    21    22    23    1
    22    23    24   ar
    23    24    25   ar
    24    25    26   ar
    25    26    27   ar
    26    27    29    1
    27    29    30   ar
    28    30    31   ar
    29    31    32   ar
    30    32    33   ar
    31    27    28   ar
    32    13    14   ar
    33    14     9   ar
    34    19    15   ar
    35     8     3    1
    36    28    23   ar
    37    33    29   ar
@<TRIPOS>MOLECULE
*****
 33 37 0 0 0
SMALL
GASTEIGER

@<TRIPOS>ATOM
      1 C          62.6348   88.5486   11.5073 C.2     1  UNL1        0.2507
      2 O          62.6228   90.0483   11.4787 O.2     1  UNL1       -0.2698
      3 N          63.2917   87.8253   12.6454 N.am    1  UNL1       -0.2723
      4 C          63.3037   86.3256   12.6739 C.3     1  UNL1        0.1257
      5 C          63.9606   85.6024   13.8121 C.3     1  UNL1        0.1637
      6 O          64.6055   86.3788   14.9217 O.3     1  UNL1       -0.3502
      7 C          64.5935   87.8785   14.8932 C.3     1  UNL1        0.1622
      8 C          63.9366   88.6017   13.7550 C.3     1  UNL1        0.1096
      9 C          62.1519   86.0123    8.4933 C.ar    1  UNL1        0.1390
     10 C          60.7001   86.2194    8.1784 C.ar    1  UNL1        0.0385
     11 C          59.8931   87.2029    8.9731 C.ar    1  UNL1        0.0242
     12 C          60.5380   87.9793   10.0827 C.ar    1  UNL1        0.1074
     13 C          61.9898   87.7722   10.3976 C.ar    1  UNL1        0.0759
     14 C          62.7968   86.7887    9.6029 C.ar    1  UNL1        0.0430
     15 N          59.7310   88.9628   10.8774 N.ar    1  UNL1       -0.1477
     16 N          58.9805   88.6694   12.1426 N.ar    1  UNL1       -0.1447
     17 C          58.3185   89.9376   12.5936 C.ar    1  UNL1        0.1446
     18 C          58.6599   91.0148   11.6071 C.ar    1  UNL1        0.1446
     19 N          59.5329   90.4123   10.5465 N.ar    1  UNL1       -0.1447
     20 C          62.4363   84.5130    6.3906 C.3     1  UNL1        0.2525
     21 O          62.9589   85.0288    7.6986 O.3     1  UNL1       -0.4714
     22 C          63.9247   90.1014   13.7265 C.3     1  UNL1        0.0488
     23 C          65.2173   90.8611   13.6832 C.ar    1  UNL1       -0.0189
     24 C          66.1434   90.8334   14.8628 C.ar    1  UNL1       -0.0041
     25 C          67.4361   91.5931   14.8195 C.ar    1  UNL1        0.0013
     26 C          67.8027   92.3804   13.5965 C.ar    1  UNL1        0.0209
     27 C          66.8766   92.4080   12.4168 C.ar    1  UNL1        0.1026
     28 C          65.5839   91.6484   12.4602 C.ar    1  UNL1        0.0167
     29 N          67.2432   93.1954   11.1938 N.ar    1  UNL1       -0.1478
     30 N          68.0257   92.6867   10.0195 N.ar    1  UNL1       -0.1447
     31 C          68.1578   93.8066    9.0303 C.ar    1  UNL1        0.1446
     32 C          67.4568   95.0073    9.5932 C.ar    1  UNL1        0.1446
     33 N          66.8915   94.6296   10.9303 N.ar    1  UNL1       -0.1447
@<TRIPOS>BOND
     1    20    21    1
     2    21     9    1
     3     9    10   ar
     4    10    11   ar
     5    11    12   ar
     6    12    15    1
     7    15    16   ar
     8    16    17   ar
     9    17    18   ar
    10    18    19   ar
    11    12    13   ar
    12    13     1    1
    13     1     2    2
    14     1     3   am
    15     3     4    1
    16     4     5    1
    17     5     6    1
    18     6     7    1
    19     7     8    1
    20     8    22    1
    21    22    23    1
    22    23    24   ar
    23    24    25   ar
    24    25    26   ar
    25    26    27   ar
    26    27    29    1
    27    29    30   ar
    28    30    31   ar
    29    31    32   ar
    30    32    33   ar
    31    27    28   ar
    32    13    14   ar
    33    14     9   ar
    34    19    15   ar
    35     8     3    1
    36    28    23   ar
    37    33    29   ar
@<TRIPOS>MOLECULE
*****
 33 37 0 0 0
SMALL
GASTEIGER

@<TRIPOS>ATOM
      1 C          62.7341   87.3234   11.6410 C.2     1  UNL1        0.2507
      2 O          63.6499   87.7918   12.7327 O.2     1  UNL1       -0.2698
      3 N          61.6409   88.2212   11.1424 N.am    1  UNL1       -0.2723
      4 C          60.7250   87.7528   10.0507 C.3     1  UNL1        0.1257
      5 C          59.6317   88.6507    9.5521 C.3     1  UNL1        0.1637
      6 O          59.4544   90.0170   10.1452 O.3     1  UNL1       -0.3502
      7 C          60.3702   90.4854   11.2368 C.3     1  UNL1        0.1622
      8 C          61.4635   89.5876   11.7355 C.3     1  UNL1        0.1096
      9 C          63.0368   84.4063    8.9672 C.ar    1  UNL1        0.1390
     10 C          63.2662   83.2244    9.8619 C.ar    1  UNL1        0.0385
     11 C          63.3183   83.4088   11.3496 C.ar    1  UNL1        0.0242
     12 C          63.1409   84.7751   11.9427 C.ar    1  UNL1        0.1074
     13 C          62.9115   85.9570   11.0480 C.ar    1  UNL1        0.0759
     14 C          62.8594   85.7726    9.5603 C.ar    1  UNL1        0.0430
     15 N          63.1930   84.9595   13.4304 N.ar    1  UNL1       -0.1477
     16 N          62.0481   84.7767   14.3821 N.ar    1  UNL1       -0.1447
     17 C          62.5466   85.0633   15.7675 C.ar    1  UNL1        0.1446
     18 C          63.9996   85.4232   15.6720 C.ar    1  UNL1        0.1446
     19 N          64.3991   85.3591   14.2276 N.ar    1  UNL1       -0.1447
     20 C          61.8372   84.7839    6.6938 C.3     1  UNL1        0.2525
     21 O          62.9847   84.2219    7.4795 O.3     1  UNL1       -0.4714
     22 C          62.3793   90.0560   12.8271 C.3     1  UNL1        0.0488
     23 C          63.5768   90.8952   12.4929 C.ar    1  UNL1       -0.0189
     24 C          63.7471   91.4404   11.1060 C.ar    1  UNL1       -0.0041
     25 C          64.9446   92.2796   10.7717 C.ar    1  UNL1        0.0013
     26 C          65.9719   92.5735   11.8244 C.ar    1  UNL1        0.0209
     27 C          65.8016   92.0283   13.2115 C.ar    1  UNL1        0.1026
     28 C          64.6041   91.1891   13.5457 C.ar    1  UNL1        0.0167
     29 N          66.8289   92.3222   14.2642 N.ar    1  UNL1       -0.1478
     30 N          66.8209   91.8059   15.6725 N.ar    1  UNL1       -0.1447
     31 C          68.0316   92.3487   16.3722 C.ar    1  UNL1        0.1446
     32 C          68.7879   93.2005   15.3963 C.ar    1  UNL1        0.1446
     33 N          68.0447   93.1842   14.0935 N.ar    1  UNL1       -0.1447
@<TRIPOS>BOND
     1    20    21    1
     2    21     9    1
     3     9    10   ar
     4    10    11   ar
     5    11    12   ar
     6    12    15    1
     7    15    16   ar
     8    16    17   ar
     9    17    18   ar
    10    18    19   ar
    11    12    13   ar
    12    13     1    1
    13     1     2    2
    14     1     3   am
    15     3     4    1
    16     4     5    1
    17     5     6    1
    18     6     7    1
    19     7     8    1
    20     8    22    1
    21    22    23    1
    22    23    24   ar
    23    24    25   ar
    24    25    26   ar
    25    26    27   ar
    26    27    29    1
    27    29    30   ar
    28    30    31   ar
    29    31    32   ar
    30    32    33   ar
    31    27    28   ar
    32    13    14   ar
    33    14     9   ar
    34    19    15   ar
    35     8     3    1
    36    28    23   ar
    37    33    29   ar
@<TRIPOS>MOLECULE
*****
 33 37 0 0 0
SMALL
GASTEIGER

@<TRIPOS>ATOM
      1 C          62.7834   87.2920   11.8583 C.2     1  UNL1        0.2507
      2 O          63.4373   87.4888   13.1938 O.2     1  UNL1       -0.2698
      3 N          61.9702   88.3966   11.2513 N.am    1  UNL1       -0.2723
      4 C          61.3163   88.1997    9.9158 C.3     1  UNL1        0.1257
      5 C          60.5030   89.3044    9.3088 C.3     1  UNL1        0.1637
      6 O          60.3436   90.6058   10.0374 O.3     1  UNL1       -0.3502
      7 C          60.9975   90.8027   11.3729 C.3     1  UNL1        0.1622
      8 C          61.8108   89.6981   11.9799 C.3     1  UNL1        0.1096
      9 C          63.0290   84.6542    8.9033 C.ar    1  UNL1        0.1390
     10 C          63.2616   83.3876    9.6726 C.ar    1  UNL1        0.0385
     11 C          63.3347   83.4225   11.1704 C.ar    1  UNL1        0.0242
     12 C          63.1754   84.7239   11.8990 C.ar    1  UNL1        0.1074
     13 C          62.9428   85.9905   11.1297 C.ar    1  UNL1        0.0759
     14 C          62.8696   85.9556    9.6319 C.ar    1  UNL1        0.0430
     15 N          63.2485   84.7588   13.3968 N.ar    1  UNL1       -0.1477
     16 N          62.0843   84.6727   14.3386 N.ar    1  UNL1       -0.1447
     17 C          62.6150   84.7466   15.7397 C.ar    1  UNL1        0.1446
     18 C          64.1073   84.8784   15.6637 C.ar    1  UNL1        0.1446
     19 N          64.4988   84.8860   14.2157 N.ar    1  UNL1       -0.1447
     20 C          61.6492   84.8690    6.7124 C.3     1  UNL1        0.2525
     21 O          62.9558   84.6193    7.4055 O.3     1  UNL1       -0.4714
     22 C          62.4646   89.8949   13.3154 C.3     1  UNL1        0.0488
     23 C          63.7844   90.6017   13.4075 C.ar    1  UNL1       -0.0189
     24 C          64.6380   90.4402   14.6302 C.ar    1  UNL1       -0.0041
     25 C          65.9579   91.1470   14.7223 C.ar    1  UNL1        0.0013
     26 C          66.4240   92.0155   13.5915 C.ar    1  UNL1        0.0209
     27 C          65.5703   92.1770   12.3687 C.ar    1  UNL1        0.1026
     28 C          64.2505   91.4702   12.2767 C.ar    1  UNL1        0.0167
     29 N          66.0365   93.0454   11.2380 N.ar    1  UNL1       -0.1478
     30 N          66.9733   92.6363   10.1403 N.ar    1  UNL1       -0.1447
     31 C          67.1634   93.8135    9.2303 C.ar    1  UNL1        0.1446
     32 C          66.3441   94.9502    9.7656 C.ar    1  UNL1        0.1446
     33 N          65.6476   94.4756   11.0065 N.ar    1  UNL1       -0.1447
@<TRIPOS>BOND
     1    20    21    1
     2    21     9    1
     3     9    10   ar
     4    10    11   ar
     5    11    12   ar
     6    12    15    1
     7    15    16   ar
     8    16    17   ar
     9    17    18   ar
    10    18    19   ar
    11    12    13   ar
    12    13     1    1
    13     1     2    2
    14     1     3   am
    15     3     4    1
    16     4     5    1
    17     5     6    1
    18     6     7    1
    19     7     8    1
    20     8    22    1
    21    22    23    1
    22    23    24   ar
    23    24    25   ar
    24    25    26   ar
    25    26    27   ar
    26    27    29    1
    27    29    30   ar
    28    30    31   ar
    29    31    32   ar
    30    32    33   ar
    31    27    28   ar
    32    13    14   ar
    33    14     9   ar
    34    19    15   ar
    35     8     3    1
    36    28    23   ar
    37    33    29   ar
@<TRIPOS>MOLECULE
*****
 33 37 0 0 0
SMALL
GASTEIGER

@<TRIPOS>ATOM
      1 C          63.3847   87.9326   13.1916 C.2     1  UNL1        0.2507
      2 O          63.5996   89.0511   12.2155 O.2     1  UNL1       -0.2698
      3 N          63.3361   88.2201   14.6629 N.am    1  UNL1       -0.2723
      4 C          63.1212   87.1016   15.6390 C.3     1  UNL1        0.1257
      5 C          63.0727   87.3892   17.1105 C.3     1  UNL1        0.1637
      6 O          63.2391   88.7953   17.6057 O.3     1  UNL1       -0.3502
      7 C          63.4541   89.9138   16.6296 C.3     1  UNL1        0.1622
      8 C          63.5026   89.6262   15.1583 C.3     1  UNL1        0.1096
      9 C          63.7996   83.9997   12.8602 C.ar    1  UNL1        0.1390
     10 C          62.8855   83.7144   11.7057 C.ar    1  UNL1        0.0385
     11 C          62.1377   84.8353   11.0465 C.ar    1  UNL1        0.0242
     12 C          62.3041   86.2413   11.5417 C.ar    1  UNL1        0.1074
     13 C          63.2182   86.5265   12.6963 C.ar    1  UNL1        0.0759
     14 C          63.9660   85.4057   13.3555 C.ar    1  UNL1        0.0430
     15 N          61.5563   87.3621   10.8825 N.ar    1  UNL1       -0.1477
     16 N          60.3798   88.0947   11.4562 N.ar    1  UNL1       -0.1447
     17 C          59.9501   89.1325   10.4621 C.ar    1  UNL1        0.1446
     18 C          60.8611   89.0413    9.2739 C.ar    1  UNL1        0.1446
     19 N          61.8538   87.9472    9.5337 N.ar    1  UNL1       -0.1447
     20 C          64.0058   81.4811   13.4640 C.3     1  UNL1        0.2525
     21 O          64.5474   82.8788   13.5195 O.3     1  UNL1       -0.4714
     22 C          63.7175   90.7447   14.1822 C.3     1  UNL1        0.0488
     23 C          65.0945   91.3002   13.9693 C.ar    1  UNL1       -0.0189
     24 C          66.1558   91.0927   15.0087 C.ar    1  UNL1       -0.0041
     25 C          67.5328   91.6482   14.7959 C.ar    1  UNL1        0.0013
     26 C          67.8485   92.4112   13.5436 C.ar    1  UNL1        0.0209
     27 C          66.7871   92.6187   12.5042 C.ar    1  UNL1        0.1026
     28 C          65.4101   92.0632   12.7170 C.ar    1  UNL1        0.0167
     29 N          67.1027   93.3817   11.2519 N.ar    1  UNL1       -0.1478
     30 N          66.7663   94.8192   10.9869 N.ar    1  UNL1       -0.1447
     31 C          67.2659   95.1671    9.6159 C.ar    1  UNL1        0.1446
     32 C          67.9110   93.9445    9.0336 C.ar    1  UNL1        0.1446
     33 N          67.8102   92.8410   10.0447 N.ar    1  UNL1       -0.1447
@<TRIPOS>BOND
     1    20    21    1
     2    21     9    1
     3     9    10   ar
     4    10    11   ar
     5    11    12   ar
     6    12    15    1
     7    15    16   ar
     8    16    17   ar
     9    17    18   ar
    10    18    19   ar
    11    12    13   ar
    12    13     1    1
    13     1     2    2
    14     1     3   am
    15     3     4    1
    16     4     5    1
    17     5     6    1
    18     6     7    1
    19     7     8    1
    20     8    22    1
    21    22    23    1
    22    23    24   ar
    23    24    25   ar
    24    25    26   ar
    25    26    27   ar
    26    27    29    1
    27    29    30   ar
    28    30    31   ar
    29    31    32   ar
    30    32    33   ar
    31    27    28   ar
    32    13    14   ar
    33    14     9   ar
    34    19    15   ar
    35     8     3    1
    36    28    23   ar
    37    33    29   ar
@<TRIPOS>MOLECULE
*****
 33 37 0 0 0
SMALL
GASTEIGER

@<TRIPOS>ATOM
      1 C          63.8132   86.8694   13.5775 C.2     1  UNL1        0.2507
      2 O          64.7100   87.2701   14.7111 O.2     1  UNL1       -0.2698
      3 N          63.2928   87.9087   12.6294 N.am    1  UNL1       -0.2723
      4 C          62.3960   87.5080   11.4958 C.3     1  UNL1        0.1257
      5 C          61.8756   88.5474   10.5477 C.3     1  UNL1        0.1637
      6 O          62.2521   89.9875   10.7332 O.3     1  UNL1       -0.3502
      7 C          63.1489   90.3882   11.8668 C.3     1  UNL1        0.1622
      8 C          63.6693   89.3489   12.8149 C.3     1  UNL1        0.1096
      9 C          63.2503   83.3302   11.8724 C.ar    1  UNL1        0.1390
     10 C          62.6839   82.5491   13.0209 C.ar    1  UNL1        0.0385
     11 C          62.4940   83.2081   14.3549 C.ar    1  UNL1        0.0242
     12 C          62.8704   84.6481   14.5405 C.ar    1  UNL1        0.1074
     13 C          63.4368   85.4292   13.3920 C.ar    1  UNL1        0.0759
     14 C          63.6267   84.7703   12.0579 C.ar    1  UNL1        0.0430
     15 N          62.6805   85.3071   15.8745 N.ar    1  UNL1       -0.1477
     16 N          61.3874   85.8360   16.4205 N.ar    1  UNL1       -0.1447
     17 C          61.6580   86.4087   17.7803 C.ar    1  UNL1        0.1446
     18 C          63.1184   86.2336   18.0746 C.ar    1  UNL1        0.1446
     19 N          63.7503   85.5528   16.8968 N.ar    1  UNL1       -0.1447
     20 C          63.3669   81.1775   10.4224 C.3     1  UNL1        0.2525
     21 O          63.4402   82.6712   10.5383 O.3     1  UNL1       -0.4714
     22 C          64.5661   89.7496   13.9486 C.3     1  UNL1        0.0488
     23 C          65.2418   91.0886   13.9331 C.ar    1  UNL1       -0.0189
     24 C          65.5914   91.7673   15.2242 C.ar    1  UNL1       -0.0041
     25 C          66.2672   93.1064   15.2088 C.ar    1  UNL1        0.0013
     26 C          66.5933   93.7668   13.9021 C.ar    1  UNL1        0.0209
     27 C          66.2437   93.0881   12.6108 C.ar    1  UNL1        0.1026
     28 C          65.5680   91.7490   12.6264 C.ar    1  UNL1        0.0167
     29 N          66.5699   93.7485   11.3041 N.ar    1  UNL1       -0.1478
     30 N          67.6097   93.2954   10.3226 N.ar    1  UNL1       -0.1447
     31 C          67.5960   94.2448    9.1613 C.ar    1  UNL1        0.1446
     32 C          66.5477   95.2848    9.4253 C.ar    1  UNL1        0.1446
     33 N          65.9135   94.9781   10.7496 N.ar    1  UNL1       -0.1447
@<TRIPOS>BOND
     1    20    21    1
     2    21     9    1
     3     9    10   ar
     4    10    11   ar
     5    11    12   ar
     6    12    15    1
     7    15    16   ar
     8    16    17   ar
     9    17    18   ar
    10    18    19   ar
    11    12    13   ar
    12    13     1    1
    13     1     2    2
    14     1     3   am
    15     3     4    1
    16     4     5    1
    17     5     6    1
    18     6     7    1
    19     7     8    1
    20     8    22    1
    21    22    23    1
    22    23    24   ar
    23    24    25   ar
    24    25    26   ar
    25    26    27   ar
    26    27    29    1
    27    29    30   ar
    28    30    31   ar
    29    31    32   ar
    30    32    33   ar
    31    27    28   ar
    32    13    14   ar
    33    14     9   ar
    34    19    15   ar
    35     8     3    1
    36    28    23   ar
    37    33    29   ar
@<TRIPOS>MOLECULE
*****
 33 37 0 0 0
SMALL
GASTEIGER

@<TRIPOS>ATOM
      1 C          62.8123   88.9773   11.8986 C.2     1  UNL1        0.2507
      2 O          62.9082   87.7405   12.7419 O.2     1  UNL1       -0.2698
      3 N          61.8372   89.0352   10.7603 N.am    1  UNL1       -0.2723
      4 C          61.7413   90.2721    9.9171 C.3     1  UNL1        0.1257
      5 C          60.7661   90.3299    8.7787 C.3     1  UNL1        0.1637
      6 O          59.8869   89.1510    8.4837 O.3     1  UNL1       -0.3502
      7 C          59.9828   87.9142    9.3269 C.3     1  UNL1        0.1622
      8 C          60.9579   87.8563   10.4652 C.3     1  UNL1        0.1096
      9 C          64.9398   92.2889   11.3914 C.ar    1  UNL1        0.1390
     10 C          65.4500   92.5141   12.7838 C.ar    1  UNL1        0.0385
     11 C          65.0809   91.5604   13.8812 C.ar    1  UNL1        0.0242
     12 C          64.2017   90.3815   13.5862 C.ar    1  UNL1        0.1074
     13 C          63.6916   90.1563   12.1937 C.ar    1  UNL1        0.0759
     14 C          64.0606   91.1100   11.0963 C.ar    1  UNL1        0.0430
     15 N          63.8327   89.4278   14.6836 N.ar    1  UNL1       -0.1477
     16 N          62.8689   89.6992   15.8005 N.ar    1  UNL1       -0.1447
     17 C          62.8032   88.4744   16.6640 C.ar    1  UNL1        0.1446
     18 C          63.7263   87.4460   16.0807 C.ar    1  UNL1        0.1446
     19 N          64.3626   88.0353   14.8568 N.ar    1  UNL1       -0.1447
     20 C          66.7512   93.4655    9.9476 C.3     1  UNL1        0.2525
     21 O          65.3089   93.2426   10.2940 O.3     1  UNL1       -0.4714
     22 C          61.0538   86.6194   11.3084 C.3     1  UNL1        0.0488
     23 C          61.9464   85.4906   10.8854 C.ar    1  UNL1       -0.0189
     24 C          62.6521   85.5477    9.5630 C.ar    1  UNL1       -0.0041
     25 C          63.5447   84.4189    9.1399 C.ar    1  UNL1        0.0013
     26 C          63.7316   83.2330   10.0392 C.ar    1  UNL1        0.0209
     27 C          63.0259   83.1759   11.3616 C.ar    1  UNL1        0.1026
     28 C          62.1333   84.3047   11.7847 C.ar    1  UNL1        0.0167
     29 N          63.2128   81.9900   12.2609 N.ar    1  UNL1       -0.1478
     30 N          64.2108   81.8770   13.3751 N.ar    1  UNL1       -0.1447
     31 C          64.0493   80.5261   14.0067 C.ar    1  UNL1        0.1446
     32 C          62.9516   79.8042   13.2829 C.ar    1  UNL1        0.1446
     33 N          62.4346   80.7089   12.2039 N.ar    1  UNL1       -0.1447
@<TRIPOS>BOND
     1    20    21    1
     2    21     9    1
     3     9    10   ar
     4    10    11   ar
     5    11    12   ar
     6    12    15    1
     7    15    16   ar
     8    16    17   ar
     9    17    18   ar
    10    18    19   ar
    11    12    13   ar
    12    13     1    1
    13     1     2    2
    14     1     3   am
    15     3     4    1
    16     4     5    1
    17     5     6    1
    18     6     7    1
    19     7     8    1
    20     8    22    1
    21    22    23    1
    22    23    24   ar
    23    24    25   ar
    24    25    26   ar
    25    26    27   ar
    26    27    29    1
    27    29    30   ar
    28    30    31   ar
    29    31    32   ar
    30    32    33   ar
    31    27    28   ar
    32    13    14   ar
    33    14     9   ar
    34    19    15   ar
    35     8     3    1
    36    28    23   ar
    37    33    29   ar
@<TRIPOS>MOLECULE
*****
 33 37 0 0 0
SMALL
GASTEIGER

@<TRIPOS>ATOM
      1 C          62.5097   93.9625   -2.2525 C.2     1  UNL1        0.2507
      2 O          61.3016   93.3404   -1.6172 O.2     1  UNL1       -0.2698
      3 N          63.4007   94.8620   -1.4481 N.am    1  UNL1       -0.2723
      4 C          64.6089   95.4840   -2.0834 C.3     1  UNL1        0.1257
      5 C          65.4999   96.3835   -1.2789 C.3     1  UNL1        0.1637
      6 O          65.1827   96.6610    0.1606 O.3     1  UNL1       -0.3502
      7 C          63.9746   96.0390    0.7959 C.3     1  UNL1        0.1622
      8 C          63.0836   95.1395   -0.0085 C.3     1  UNL1        0.1096
      9 C          64.3366   92.5709   -5.4891 C.ar    1  UNL1        0.1390
     10 C          63.4611   93.1299   -6.5712 C.ar    1  UNL1        0.0385
     11 C          62.2685   93.9665   -6.2137 C.ar    1  UNL1        0.0242
     12 C          61.9514   94.2440   -4.7742 C.ar    1  UNL1        0.1074
     13 C          62.8269   93.6850   -3.6921 C.ar    1  UNL1        0.0759
     14 C          64.0195   92.8484   -4.0496 C.ar    1  UNL1        0.0430
     15 N          60.7588   95.0806   -4.4167 N.ar    1  UNL1       -0.1477
     16 N          59.3332   94.7829   -4.7761 N.ar    1  UNL1       -0.1447
     17 C          58.4757   95.8801   -4.2186 C.ar    1  UNL1        0.1446
     18 C          59.3713   96.8560   -3.5146 C.ar    1  UNL1        0.1446
     19 N          60.7823   96.3619   -3.6370 N.ar    1  UNL1       -0.1447
     20 C          65.7481   91.3091   -7.2683 C.3     1  UNL1        0.2525
     21 O          65.5292   91.7343   -5.8466 O.3     1  UNL1       -0.4714
     22 C          61.8755   94.5174    0.6268 C.3     1  UNL1        0.0488
     23 C          62.0402   93.4249    1.6413 C.ar    1  UNL1       -0.0189
     24 C          63.3710   92.7541    1.8116 C.ar    1  UNL1       -0.0041
     25 C          63.5358   91.6616    2.8262 C.ar    1  UNL1        0.0013
     26 C          62.3698   91.2399    3.6703 C.ar    1  UNL1        0.0209
     27 C          61.0390   91.9108    3.5000 C.ar    1  UNL1        0.1026
     28 C          60.8742   93.0033    2.4854 C.ar    1  UNL1        0.0167
     29 N          59.8729   91.4891    4.3441 N.ar    1  UNL1       -0.1478
     30 N          59.9024   90.4656    5.4402 N.ar    1  UNL1       -0.1447
     31 C          58.5204   90.3608    6.0139 C.ar    1  UNL1        0.1446
     32 C          57.6368   91.3197    5.2725 C.ar    1  UNL1        0.1446
     33 N          58.4727   92.0171    4.2404 N.ar    1  UNL1       -0.1447
@<TRIPOS>BOND
     1    20    21    1
     2    21     9    1
     3     9    10   ar
     4    10    11   ar
     5    11    12   ar
     6    12    15    1
     7    15    16   ar
     8    16    17   ar
     9    17    18   ar
    10    18    19   ar
    11    12    13   ar
    12    13     1    1
    13     1     2    2
    14     1     3   am
    15     3     4    1
    16     4     5    1
    17     5     6    1
    18     6     7    1
    19     7     8    1
    20     8    22    1
    21    22    23    1
    22    23    24   ar
    23    24    25   ar
    24    25    26   ar
    25    26    27   ar
    26    27    29    1
    27    29    30   ar
    28    30    31   ar
    29    31    32   ar
    30    32    33   ar
    31    27    28   ar
    32    13    14   ar
    33    14     9   ar
    34    19    15   ar
    35     8     3    1
    36    28    23   ar
    37    33    29   ar
@<TRIPOS>MOLECULE
*****
 33 37 0 0 0
SMALL
GASTEIGER

@<TRIPOS>ATOM
      1 C          63.3933   93.7600   -2.7531 C.2     1  UNL1        0.2507
      2 O          62.7156   92.7082   -1.9259 O.2     1  UNL1       -0.2698
      3 N          64.2834   94.7729   -2.0960 N.am    1  UNL1       -0.2723
      4 C          64.9611   95.8247   -2.9232 C.3     1  UNL1        0.1257
      5 C          65.8512   96.8376   -2.2660 C.3     1  UNL1        0.1637
      6 O          66.0637   96.7985   -0.7817 O.3     1  UNL1       -0.3502
      7 C          65.3860   95.7466    0.0455 C.3     1  UNL1        0.1622
      8 C          64.4959   94.7338   -0.6116 C.3     1  UNL1        0.1096
      9 C          63.9840   93.2270   -6.6412 C.ar    1  UNL1        0.1390
     10 C          62.7560   93.8771   -7.2062 C.ar    1  UNL1        0.0385
     11 C          61.7404   94.4882   -6.2869 C.ar    1  UNL1        0.0242
     12 C          61.9528   94.4492   -4.8026 C.ar    1  UNL1        0.1074
     13 C          63.1808   93.7991   -4.2375 C.ar    1  UNL1        0.0759
     14 C          64.1964   93.1880   -5.1568 C.ar    1  UNL1        0.0430
     15 N          60.9372   95.0603   -3.8832 N.ar    1  UNL1       -0.1477
     16 N          60.8197   96.5163   -3.5423 N.ar    1  UNL1       -0.1447
     17 C          59.6707   96.6786   -2.5918 C.ar    1  UNL1        0.1446
     18 C          59.0781   95.3229   -2.3453 C.ar    1  UNL1        0.1446
     19 N          59.8609   94.3228   -3.1434 N.ar    1  UNL1       -0.1447
     20 C          65.4117   91.1852   -7.3779 C.3     1  UNL1        0.2525
     21 O          64.9996   92.6159   -7.5605 O.3     1  UNL1       -0.4714
     22 C          63.8182   93.6819    0.2156 C.3     1  UNL1        0.0488
     23 C          62.5150   93.9852    0.8937 C.ar    1  UNL1       -0.0189
     24 C          61.7475   95.2202    0.5253 C.ar    1  UNL1       -0.0041
     25 C          60.4443   95.5235    1.2033 C.ar    1  UNL1        0.0013
     26 C          59.9087   94.5918    2.2497 C.ar    1  UNL1        0.0209
     27 C          60.6762   93.3568    2.6181 C.ar    1  UNL1        0.1026
     28 C          61.9794   93.0535    1.9401 C.ar    1  UNL1        0.0167
     29 N          60.1406   92.4251    3.6646 N.ar    1  UNL1       -0.1478
     30 N          58.7161   92.3446    4.1276 N.ar    1  UNL1       -0.1447
     31 C          58.6305   91.2800    5.1809 C.ar    1  UNL1        0.1446
     32 C          60.0021   90.7026    5.3689 C.ar    1  UNL1        0.1446
     33 N          60.9354   91.4103    4.4318 N.ar    1  UNL1       -0.1447
@<TRIPOS>BOND
     1    20    21    1
     2    21     9    1
     3     9    10   ar
     4    10    11   ar
     5    11    12   ar
     6    12    15    1
     7    15    16   ar
     8    16    17   ar
     9    17    18   ar
    10    18    19   ar
    11    12    13   ar
    12    13     1    1
    13     1     2    2
    14     1     3   am
    15     3     4    1
    16     4     5    1
    17     5     6    1
    18     6     7    1
    19     7     8    1
    20     8    22    1
    21    22    23    1
    22    23    24   ar
    23    24    25   ar
    24    25    26   ar
    25    26    27   ar
    26    27    29    1
    27    29    30   ar
    28    30    31   ar
    29    31    32   ar
    30    32    33   ar
    31    27    28   ar
    32    13    14   ar
    33    14     9   ar
    34    19    15   ar
    35     8     3    1
    36    28    23   ar
    37    33    29   ar
