@<TRIPOS>MOLECULE
*****
 42 44 0 0 0
SMALL
GASTEIGER

@<TRIPOS>ATOM
      1 C          61.8667   86.2644    9.7823 C.3     1  UNL1        0.0920
      2 C          60.6970   86.1294    8.8529 C.3     1  UNL1        0.2582
      3 S          59.7653   87.2868    8.6469 S.O     1  UNL1        0.0319
      4 O          58.5957   87.1519    7.7175 O.co2   1  UNL1       -0.6812
      5 C          60.0034   88.5792    9.3702 C.3     1  UNL1        0.2736
      6 C          61.1730   88.7141   10.2996 C.3     1  UNL1        0.1416
      7 C          62.1047   87.5567   10.5056 C.3     1  UNL1        0.1353
      8 O          63.2743   87.6917   11.4350 O.3     1  UNL1       -0.3827
      9 H          63.2823   88.5831   11.8174 H       1  UNL1        0.2104
     10 N          61.4110   90.0065   11.0229 N.3     1  UNL1       -0.2887
     11 H          61.6382   89.7663   11.9879 H       1  UNL1        0.1237
     12 C          62.4791   90.9464   10.5476 C.3     1  UNL1        0.0959
     13 C          63.6268   91.2947   11.4484 C.ar    1  UNL1       -0.0034
     14 C          63.6891   90.7295   12.8365 C.ar    1  UNL1       -0.0027
     15 C          64.8367   91.0778   13.7373 C.ar    1  UNL1        0.0028
     16 C          65.9222   91.9914   13.2500 C.ar    1  UNL1        0.0369
     17 C          65.8599   92.5565   11.8619 C.ar    1  UNL1        0.1381
     18 C          64.7121   92.2082   10.9611 C.ar    1  UNL1        0.0340
     19 O          66.9452   93.4700   11.3747 O.3     1  UNL1       -0.4792
     20 C          67.4646   93.3371    9.9738 C.3     1  UNL1        0.1661
     21 C          68.2405   92.1171    9.5741 C.3     1  UNL1        0.0472
     22 C          67.2081   94.4242    8.9725 C.3     1  UNL1        0.0472
     23 C          62.7984   85.1070    9.9883 C.3     1  UNL1        0.0342
     24 C          62.3647   84.0534   13.7899 C.ar    1  UNL1        0.1535
     25 C          62.4845   84.9026   12.5593 C.ar    1  UNL1        0.0341
     26 C          62.6786   84.2577   11.2190 C.ar    1  UNL1       -0.0166
     27 C          62.7531   82.7636   11.1093 C.ar    1  UNL1        0.0268
     28 C          62.6334   81.9144   12.3399 C.ar    1  UNL1        0.1556
     29 F          62.7079   80.4202   12.2302 F       1  UNL1       -0.2028
     30 C          62.4392   82.5593   13.6802 C.ar    1  UNL1        0.1037
     31 N          62.3195   81.7100   14.9108 N.pl3   1  UNL1       -0.3529
     32 H          62.3684   80.7293   14.8388 H       1  UNL1        0.1425
     33 H          62.1921   82.1332   15.7905 H       1  UNL1        0.1425
     34 O          62.1706   84.6983   15.1302 O.3     1  UNL1       -0.4665
     35 C          63.3149   85.4032   15.7961 C.3     1  UNL1        0.2891
     36 C          64.6892   85.3322   15.1992 C.3     1  UNL1        0.4366
     37 F          66.0635   85.2612   14.6023 F       1  UNL1       -0.1663
     38 F          64.8054   83.9022   15.6369 F       1  UNL1       -0.1663
     39 F          64.5730   86.7622   14.7616 F       1  UNL1       -0.1663
     40 C          63.0849   86.1793   17.0590 C.3     1  UNL1        0.1945
     41 C          63.0956   88.7684   16.8425 C.3     1  UNL1        0.1743
     42 O          62.3430   87.4822   17.0141 O.3     1  UNL1       -0.3469
@<TRIPOS>UNITY_ATOM_ATTR
3 1
charge 1
4 1
charge -1
@<TRIPOS>BOND
     1    41    42    1
     2    42    40    1
     3    35    40    1
     4    35    34    1
     5    34    24    1
     6    24    25   ar
     7    25    26   ar
     8    26    23    1
     9     1    23    1
    10     1     2    1
    11     2     3    1
    12     3     4    2
    13     3     5    1
    14     5     6    1
    15     6    10    1
    16    10    12    1
    17    12    13    1
    18    13    14   ar
    19    14    15   ar
    20    15    16   ar
    21    16    17   ar
    22    17    19    1
    23    19    20    1
    24    20    21    1
    25    20    22    1
    26    17    18   ar
    27     6     7    1
    28     7     8    1
    29    26    27   ar
    30    27    28   ar
    31    28    29    1
    32    28    30   ar
    33    30    31    1
    34    35    36    1
    35    36    37    1
    36    36    38    1
    37    36    39    1
    38    30    24   ar
    39     7     1    1
    40    18    13   ar
    41    10    11    1
    42     8     9    1
    43    31    32    1
    44    31    33    1
@<TRIPOS>MOLECULE
*****
 42 44 0 0 0
SMALL
GASTEIGER

@<TRIPOS>ATOM
      1 C          61.8323   86.2411    9.7025 C.3     1  UNL1        0.0920
      2 C          60.6850   86.0190    8.7619 C.3     1  UNL1        0.2582
      3 S          59.6935   87.1174    8.5159 S.O     1  UNL1        0.0319
      4 O          58.5463   86.8954    7.5754 O.co2   1  UNL1       -0.6812
      5 C          59.8493   88.4379    9.2103 C.3     1  UNL1        0.2736
      6 C          60.9965   88.6599   10.1508 C.3     1  UNL1        0.1416
      7 C          61.9880   87.5615   10.3969 C.3     1  UNL1        0.1353
      8 O          63.1353   87.7836   11.3374 O.3     1  UNL1       -0.3827
      9 H          63.0884   88.6829   11.6980 H       1  UNL1        0.2104
     10 N          61.1523   89.9804   10.8453 N.3     1  UNL1       -0.2887
     11 H          60.2117   90.3217   11.0433 H       1  UNL1        0.1237
     12 C          61.9233   90.0662   12.1291 C.3     1  UNL1        0.0959
     13 C          63.2495   90.7662   12.1621 C.ar    1  UNL1       -0.0034
     14 C          63.6996   91.5762   10.9825 C.ar    1  UNL1       -0.0027
     15 C          65.0259   92.2762   11.0155 C.ar    1  UNL1        0.0028
     16 C          65.9021   92.1662   12.2281 C.ar    1  UNL1        0.0369
     17 C          65.4520   91.3562   13.4076 C.ar    1  UNL1        0.1381
     18 C          64.1257   90.6561   13.3746 C.ar    1  UNL1        0.0340
     19 O          66.3281   91.2461   14.6202 O.3     1  UNL1       -0.4792
     20 C          66.3205   92.3346   15.6521 C.3     1  UNL1        0.1661
     21 C          65.1528   92.4778   16.5828 C.3     1  UNL1        0.0472
     22 C          67.4806   93.2800   15.7536 C.3     1  UNL1        0.0472
     23 C          62.8238   85.1428    9.9486 C.3     1  UNL1        0.0342
     24 C          62.3940   84.0674   13.7445 C.ar    1  UNL1        0.1535
     25 C          62.5122   84.9236   12.5186 C.ar    1  UNL1        0.0341
     26 C          62.7055   84.2864   11.1745 C.ar    1  UNL1       -0.0166
     27 C          62.7806   82.7930   11.0563 C.ar    1  UNL1        0.0268
     28 C          62.6623   81.9368   12.2822 C.ar    1  UNL1        0.1556
     29 F          62.7374   80.4433   12.1640 F       1  UNL1       -0.2028
     30 C          62.4690   82.5740   13.6263 C.ar    1  UNL1        0.1037
     31 N          62.3508   81.7177   14.8522 N.pl3   1  UNL1       -0.3529
     32 H          62.4001   80.7375   14.7746 H       1  UNL1        0.1425
     33 H          62.2240   82.1359   15.7344 H       1  UNL1        0.1425
     34 O          62.2007   84.7046   15.0886 O.3     1  UNL1       -0.4665
     35 C          63.3443   85.4096   15.7558 C.3     1  UNL1        0.2891
     36 C          64.7204   85.3337   15.1636 C.3     1  UNL1        0.4366
     37 F          66.0964   85.2578   14.5715 F       1  UNL1       -0.1663
     38 F          64.6113   86.7645   14.7267 F       1  UNL1       -0.1663
     39 F          64.8294   83.9030   15.6005 F       1  UNL1       -0.1663
     40 C          63.1118   86.1906   17.0152 C.3     1  UNL1        0.1945
     41 C          63.1196   88.7791   16.7921 C.3     1  UNL1        0.1743
     42 O          62.3681   87.4923   16.9640 O.3     1  UNL1       -0.3469
@<TRIPOS>UNITY_ATOM_ATTR
3 1
charge 1
4 1
charge -1
@<TRIPOS>BOND
     1    41    42    1
     2    42    40    1
     3    35    40    1
     4    35    34    1
     5    34    24    1
     6    24    25   ar
     7    25    26   ar
     8    26    23    1
     9     1    23    1
    10     1     2    1
    11     2     3    1
    12     3     4    2
    13     3     5    1
    14     5     6    1
    15     6    10    1
    16    10    12    1
    17    12    13    1
    18    13    14   ar
    19    14    15   ar
    20    15    16   ar
    21    16    17   ar
    22    17    19    1
    23    19    20    1
    24    20    21    1
    25    20    22    1
    26    17    18   ar
    27     6     7    1
    28     7     8    1
    29    26    27   ar
    30    27    28   ar
    31    28    29    1
    32    28    30   ar
    33    30    31    1
    34    35    36    1
    35    36    37    1
    36    36    38    1
    37    36    39    1
    38    30    24   ar
    39     7     1    1
    40    18    13   ar
    41    10    11    1
    42     8     9    1
    43    31    32    1
    44    31    33    1
@<TRIPOS>MOLECULE
*****
 42 44 0 0 0
SMALL
GASTEIGER

@<TRIPOS>ATOM
      1 C          61.4845   89.3668   10.7599 C.3     1  UNL1        0.0920
      2 C          60.5285   89.6529    9.6399 C.3     1  UNL1        0.2582
      3 S          60.2458   88.6014    8.6082 S.O     1  UNL1        0.0319
      4 O          59.2899   88.8874    7.4883 O.co2   1  UNL1       -0.6812
      5 C          60.9191   87.2639    8.6964 C.3     1  UNL1        0.2736
      6 C          61.8751   86.9779    9.8163 C.3     1  UNL1        0.1416
      7 C          62.1578   88.0294   10.8481 C.3     1  UNL1        0.1353
      8 O          63.1138   87.7433   11.9681 O.3     1  UNL1       -0.3827
      9 H          63.4574   86.8407   11.8773 H       1  UNL1        0.2104
     10 N          62.5484   85.6404    9.9045 N.3     1  UNL1       -0.2887
     11 H          63.4818   85.8048   10.2817 H       1  UNL1        0.1237
     12 C          61.9361   84.5452   10.7265 C.3     1  UNL1        0.0959
     13 C          62.6794   83.9852   11.9029 C.ar    1  UNL1       -0.0034
     14 C          63.7015   82.9063   11.6998 C.ar    1  UNL1       -0.0027
     15 C          64.4447   82.3463   12.8762 C.ar    1  UNL1        0.0028
     16 C          64.1660   82.8653   14.2557 C.ar    1  UNL1        0.0369
     17 C          63.1439   83.9442   14.4588 C.ar    1  UNL1        0.1381
     18 C          62.4005   84.5042   13.2823 C.ar    1  UNL1        0.0340
     19 O          62.8650   84.4632   15.8382 O.3     1  UNL1       -0.4792
     20 C          63.3549   85.8224   16.2414 C.3     1  UNL1        0.1661
     21 C          64.3298   86.5573   15.3697 C.3     1  UNL1        0.0472
     22 C          62.8700   86.4468   17.5161 C.3     1  UNL1        0.0472
     23 C          61.7672   90.4183   11.7917 C.3     1  UNL1        0.0342
     24 C          65.2979   91.3277   13.3592 C.ar    1  UNL1        0.1535
     25 C          63.9121   90.7724   13.2145 C.ar    1  UNL1        0.0341
     26 C          63.1532   90.9736   11.9364 C.ar    1  UNL1       -0.0166
     27 C          63.7801   91.7301   10.8030 C.ar    1  UNL1        0.0268
     28 C          65.1660   92.2854   10.9477 C.ar    1  UNL1        0.1556
     29 F          65.7930   93.0420    9.8143 F       1  UNL1       -0.2028
     30 C          65.9249   92.0842   12.2258 C.ar    1  UNL1        0.1037
     31 N          67.3108   92.6395   12.3705 N.pl3   1  UNL1       -0.3529
     32 H          67.7223   93.1361   11.6266 H       1  UNL1        0.1425
     33 H          67.8089   92.5075   13.2094 H       1  UNL1        0.1425
     34 O          66.0568   91.1265   14.6373 O.3     1  UNL1       -0.4665
     35 C          66.0712   92.2057   15.6789 C.3     1  UNL1        0.2891
     36 C          67.2276   93.1580   15.7564 C.3     1  UNL1        0.4366
     37 F          68.3839   94.1103   15.8338 F       1  UNL1       -0.1663
     38 F          66.5306   94.0820   14.8022 F       1  UNL1       -0.1663
     39 F          67.9245   92.2341   16.7106 F       1  UNL1       -0.1663
     40 C          64.9292   92.3327   16.6431 C.3     1  UNL1        0.1945
     41 C          63.4160   90.2208   16.6540 C.3     1  UNL1        0.1743
     42 O          63.6157   91.6741   16.3410 O.3     1  UNL1       -0.3469
@<TRIPOS>UNITY_ATOM_ATTR
3 1
charge 1
4 1
charge -1
@<TRIPOS>BOND
     1    41    42    1
     2    42    40    1
     3    35    40    1
     4    35    34    1
     5    34    24    1
     6    24    25   ar
     7    25    26   ar
     8    26    23    1
     9     1    23    1
    10     1     2    1
    11     2     3    1
    12     3     4    2
    13     3     5    1
    14     5     6    1
    15     6    10    1
    16    10    12    1
    17    12    13    1
    18    13    14   ar
    19    14    15   ar
    20    15    16   ar
    21    16    17   ar
    22    17    19    1
    23    19    20    1
    24    20    21    1
    25    20    22    1
    26    17    18   ar
    27     6     7    1
    28     7     8    1
    29    26    27   ar
    30    27    28   ar
    31    28    29    1
    32    28    30   ar
    33    30    31    1
    34    35    36    1
    35    36    37    1
    36    36    38    1
    37    36    39    1
    38    30    24   ar
    39     7     1    1
    40    18    13   ar
    41    10    11    1
    42     8     9    1
    43    31    32    1
    44    31    33    1
@<TRIPOS>MOLECULE
*****
 42 44 0 0 0
SMALL
GASTEIGER

@<TRIPOS>ATOM
      1 C          61.8053   89.9668   10.6010 C.3     1  UNL1        0.0920
      2 C          60.6352   90.3714   11.4478 C.3     1  UNL1        0.2582
      3 S          59.5875   89.3613   11.8113 S.O     1  UNL1        0.0319
      4 O          58.4174   89.7658   12.6581 O.co2   1  UNL1       -0.6812
      5 C          59.7100   87.9466   11.3278 C.3     1  UNL1        0.2736
      6 C          60.8801   87.5420   10.4810 C.3     1  UNL1        0.1416
      7 C          61.9278   88.5522   10.1176 C.3     1  UNL1        0.1353
      8 O          63.0979   88.1475    9.2707 O.3     1  UNL1       -0.3827
      9 H          63.0245   87.2068    9.0459 H       1  UNL1        0.2104
     10 N          61.0026   86.1273    9.9975 N.3     1  UNL1       -0.2887
     11 H          60.5605   86.0907    9.0790 H       1  UNL1        0.1237
     12 C          62.3569   85.4992    9.8516 C.3     1  UNL1        0.0959
     13 C          62.8994   84.6245   10.9427 C.ar    1  UNL1       -0.0034
     14 C          63.7267   83.4216   10.5980 C.ar    1  UNL1       -0.0027
     15 C          64.2692   82.5468   11.6891 C.ar    1  UNL1        0.0028
     16 C          63.9844   82.8749   13.1248 C.ar    1  UNL1        0.0369
     17 C          63.1572   84.0778   13.4695 C.ar    1  UNL1        0.1381
     18 C          62.6147   84.9526   12.3783 C.ar    1  UNL1        0.0340
     19 O          62.8725   84.4059   14.9052 O.3     1  UNL1       -0.4792
     20 C          63.6566   85.4801   15.5987 C.3     1  UNL1        0.1661
     21 C          64.9223   86.0002   14.9842 C.3     1  UNL1        0.0472
     22 C          63.1750   86.0345   16.9067 C.3     1  UNL1        0.0472
     23 C          62.8530   90.9769   10.2376 C.3     1  UNL1        0.0342
     24 C          66.0788   92.6523   11.8305 C.ar    1  UNL1        0.1535
     25 C          65.0233   92.2747   10.8338 C.ar    1  UNL1        0.0341
     26 C          63.9085   91.3545   11.2343 C.ar    1  UNL1       -0.0166
     27 C          63.8490   90.8120   12.6315 C.ar    1  UNL1        0.0268
     28 C          64.9045   91.1897   13.6282 C.ar    1  UNL1        0.1556
     29 F          64.8451   90.6471   15.0254 F       1  UNL1       -0.2028
     30 C          66.0193   92.1098   13.2277 C.ar    1  UNL1        0.1037
     31 N          67.0748   92.4875   14.2244 N.pl3   1  UNL1       -0.3529
     32 H          67.0358   92.1314   15.1415 H       1  UNL1        0.1425
     33 H          67.8065   93.0914   13.9616 H       1  UNL1        0.1425
     34 O          67.1936   93.5725   11.4300 O.3     1  UNL1       -0.4665
     35 C          67.3811   93.9404    9.9880 C.3     1  UNL1        0.2891
     36 C          68.2228   93.0760    9.0967 C.3     1  UNL1        0.4366
     37 F          69.0646   92.2117    8.2055 F       1  UNL1       -0.1663
     38 F          67.8335   93.9146    7.9156 F       1  UNL1       -0.1663
     39 F          68.6122   92.2374   10.2778 F       1  UNL1       -0.1663
     40 C          66.7268   95.1727    9.4372 C.3     1  UNL1        0.1945
     41 C          65.9960   96.8113   11.3164 C.3     1  UNL1        0.1743
     42 O          65.6416   95.8570   10.2147 O.3     1  UNL1       -0.3469
@<TRIPOS>UNITY_ATOM_ATTR
3 1
charge 1
4 1
charge -1
@<TRIPOS>BOND
     1    41    42    1
     2    42    40    1
     3    35    40    1
     4    35    34    1
     5    34    24    1
     6    24    25   ar
     7    25    26   ar
     8    26    23    1
     9     1    23    1
    10     1     2    1
    11     2     3    1
    12     3     4    2
    13     3     5    1
    14     5     6    1
    15     6    10    1
    16    10    12    1
    17    12    13    1
    18    13    14   ar
    19    14    15   ar
    20    15    16   ar
    21    16    17   ar
    22    17    19    1
    23    19    20    1
    24    20    21    1
    25    20    22    1
    26    17    18   ar
    27     6     7    1
    28     7     8    1
    29    26    27   ar
    30    27    28   ar
    31    28    29    1
    32    28    30   ar
    33    30    31    1
    34    35    36    1
    35    36    37    1
    36    36    38    1
    37    36    39    1
    38    30    24   ar
    39     7     1    1
    40    18    13   ar
    41    10    11    1
    42     8     9    1
    43    31    32    1
    44    31    33    1
@<TRIPOS>MOLECULE
*****
 42 44 0 0 0
SMALL
GASTEIGER

@<TRIPOS>ATOM
      1 C          64.3549   91.7267   11.1262 C.3     1  UNL1        0.0920
      2 C          65.1741   92.9685   10.9337 C.3     1  UNL1        0.2582
      3 S          65.9978   93.5064   12.0660 S.O     1  UNL1        0.0319
      4 O          66.8170   94.7482   11.8736 O.co2   1  UNL1       -0.6812
      5 C          66.0024   92.8026   13.3907 C.3     1  UNL1        0.2736
      6 C          65.1832   91.5609   13.5831 C.3     1  UNL1        0.1416
      7 C          64.3595   91.0229   12.4508 C.3     1  UNL1        0.1353
      8 O          63.5403   89.7811   12.6432 O.3     1  UNL1       -0.3827
      9 H          63.6553   89.4551   13.5495 H       1  UNL1        0.2104
     10 N          65.1878   90.8571   14.9078 N.3     1  UNL1       -0.2887
     11 H          65.5884   91.5064   15.5848 H       1  UNL1        0.1237
     12 C          63.9016   90.3573   15.4959 C.3     1  UNL1        0.0959
     13 C          63.7472   88.9048   15.8368 C.ar    1  UNL1       -0.0034
     14 C          63.0124   88.5002   17.0804 C.ar    1  UNL1       -0.0027
     15 C          62.8581   87.0477   17.4213 C.ar    1  UNL1        0.0028
     16 C          63.4386   85.9996   16.5187 C.ar    1  UNL1        0.0369
     17 C          64.1734   86.4042   15.2752 C.ar    1  UNL1        0.1381
     18 C          64.3278   87.8568   14.9342 C.ar    1  UNL1        0.0340
     19 O          64.7540   85.3562   14.3726 O.3     1  UNL1       -0.4792
     20 C          63.8528   84.5406   13.4937 C.3     1  UNL1        0.1661
     21 C          63.8348   83.0459   13.6192 C.3     1  UNL1        0.0472
     22 C          62.9695   85.2195   12.4892 C.3     1  UNL1        0.0472
     23 C          63.5311   91.1887    9.9939 C.3     1  UNL1        0.0342
     24 C          60.9996   88.1444   10.2662 C.ar    1  UNL1        0.1535
     25 C          62.2438   88.9319    9.9804 C.ar    1  UNL1        0.0341
     26 C          62.2868   90.4011   10.2798 C.ar    1  UNL1       -0.0166
     27 C          61.0857   91.0828   10.8649 C.ar    1  UNL1        0.0268
     28 C          59.8415   90.2953   11.1508 C.ar    1  UNL1        0.1556
     29 F          58.6402   90.9769   11.7360 F       1  UNL1       -0.2028
     30 C          59.7985   88.8261   10.8514 C.ar    1  UNL1        0.1037
     31 N          58.5542   88.0385   11.1373 N.pl3   1  UNL1       -0.3529
     32 H          57.7658   88.4860   11.5213 H       1  UNL1        0.1425
     33 H          58.5259   87.0743   10.9408 H       1  UNL1        0.1425
     34 O          60.9566   86.6752    9.9669 O.3     1  UNL1       -0.4665
     35 C          60.7580   86.2025    8.5573 C.3     1  UNL1        0.2891
     36 C          61.8846   85.5375    7.8234 C.3     1  UNL1        0.4366
     37 F          63.0112   84.8726    7.0896 F       1  UNL1       -0.1663
     38 F          60.9263   85.0854    6.7618 F       1  UNL1       -0.1663
     39 F          62.8429   85.9896    8.8850 F       1  UNL1       -0.1663
     40 C          59.4327   86.3948    7.8815 C.3     1  UNL1        0.1945
     41 C          59.3180   88.8802    7.1335 C.3     1  UNL1        0.1743
     42 O          58.7575   87.7337    7.9217 O.3     1  UNL1       -0.3469
@<TRIPOS>UNITY_ATOM_ATTR
3 1
charge 1
4 1
charge -1
@<TRIPOS>BOND
     1    41    42    1
     2    42    40    1
     3    35    40    1
     4    35    34    1
     5    34    24    1
     6    24    25   ar
     7    25    26   ar
     8    26    23    1
     9     1    23    1
    10     1     2    1
    11     2     3    1
    12     3     4    2
    13     3     5    1
    14     5     6    1
    15     6    10    1
    16    10    12    1
    17    12    13    1
    18    13    14   ar
    19    14    15   ar
    20    15    16   ar
    21    16    17   ar
    22    17    19    1
    23    19    20    1
    24    20    21    1
    25    20    22    1
    26    17    18   ar
    27     6     7    1
    28     7     8    1
    29    26    27   ar
    30    27    28   ar
    31    28    29    1
    32    28    30   ar
    33    30    31    1
    34    35    36    1
    35    36    37    1
    36    36    38    1
    37    36    39    1
    38    30    24   ar
    39     7     1    1
    40    18    13   ar
    41    10    11    1
    42     8     9    1
    43    31    32    1
    44    31    33    1
@<TRIPOS>MOLECULE
*****
 42 44 0 0 0
SMALL
GASTEIGER

@<TRIPOS>ATOM
      1 C          61.8955   89.9915   10.5451 C.3     1  UNL1        0.0920
      2 C          60.7116   90.4667   11.3341 C.3     1  UNL1        0.2582
      3 S          59.6178   89.5065   11.6970 S.O     1  UNL1        0.0319
      4 O          58.4339   89.9816   12.4859 O.co2   1  UNL1       -0.6812
      5 C          59.7080   88.0711   11.2708 C.3     1  UNL1        0.2736
      6 C          60.8919   87.5959   10.4818 C.3     1  UNL1        0.1416
      7 C          61.9857   88.5561   10.1189 C.3     1  UNL1        0.1353
      8 O          63.1696   88.0809    9.3299 O.3     1  UNL1       -0.3827
      9 H          63.0715   87.1353    9.1376 H       1  UNL1        0.2104
     10 N          60.9821   86.1605   10.0556 N.3     1  UNL1       -0.2887
     11 H          60.4895   86.0861    9.1656 H       1  UNL1        0.1237
     12 C          62.3239   85.5183    9.8630 C.3     1  UNL1        0.0959
     13 C          62.8937   84.6359   10.9338 C.ar    1  UNL1       -0.0034
     14 C          63.7301   83.4481   10.5605 C.ar    1  UNL1       -0.0027
     15 C          64.3000   82.5657   11.6313 C.ar    1  UNL1        0.0028
     16 C          64.0333   82.8711   13.0755 C.ar    1  UNL1        0.0369
     17 C          63.1969   84.0590   13.4488 C.ar    1  UNL1        0.1381
     18 C          62.6270   84.9414   12.3779 C.ar    1  UNL1        0.0340
     19 O          62.9302   84.3645   14.8930 O.3     1  UNL1       -0.4792
     20 C          63.6807   85.4684   15.5770 C.3     1  UNL1        0.1661
     21 C          63.1915   86.0076   16.8885 C.3     1  UNL1        0.0472
     22 C          64.9206   86.0334   14.9495 C.3     1  UNL1        0.0472
     23 C          62.9893   90.9517   10.1822 C.3     1  UNL1        0.0342
     24 C          66.0658   92.7811   11.8964 C.ar    1  UNL1        0.1535
     25 C          65.0661   92.3572   10.8616 C.ar    1  UNL1        0.0341
     26 C          63.9891   91.3756   11.2171 C.ar    1  UNL1       -0.0166
     27 C          63.9117   90.8179   12.6074 C.ar    1  UNL1        0.0268
     28 C          64.9114   91.2418   13.6422 C.ar    1  UNL1        0.1556
     29 F          64.8341   90.6841   15.0325 F       1  UNL1       -0.2028
     30 C          65.9884   92.2234   13.2867 C.ar    1  UNL1        0.1037
     31 N          66.9882   92.6474   14.3216 N.pl3   1  UNL1       -0.3529
     32 H          66.9374   92.2813   15.2341 H       1  UNL1        0.1425
     33 H          67.6951   93.2916   14.0883 H       1  UNL1        0.1425
     34 O          67.1428   93.7628   11.5409 O.3     1  UNL1       -0.4665
     35 C          66.9068   94.7768   10.4612 C.3     1  UNL1        0.2891
     36 C          65.8360   95.8141   10.6275 C.3     1  UNL1        0.4366
     37 F          64.7652   96.8513   10.7939 F       1  UNL1       -0.1663
     38 F          65.6195   95.8286    9.1433 F       1  UNL1       -0.1663
     39 F          66.0525   95.7995   12.1117 F       1  UNL1       -0.1663
     40 C          67.7414   94.7537    9.2151 C.3     1  UNL1        0.1945
     41 C          68.8331   92.3983    9.1141 C.3     1  UNL1        0.1743
     42 O          67.9749   93.4600    8.4926 O.3     1  UNL1       -0.3469
@<TRIPOS>UNITY_ATOM_ATTR
3 1
charge 1
4 1
charge -1
@<TRIPOS>BOND
     1    41    42    1
     2    42    40    1
     3    35    40    1
     4    35    34    1
     5    34    24    1
     6    24    25   ar
     7    25    26   ar
     8    26    23    1
     9     1    23    1
    10     1     2    1
    11     2     3    1
    12     3     4    2
    13     3     5    1
    14     5     6    1
    15     6    10    1
    16    10    12    1
    17    12    13    1
    18    13    14   ar
    19    14    15   ar
    20    15    16   ar
    21    16    17   ar
    22    17    19    1
    23    19    20    1
    24    20    21    1
    25    20    22    1
    26    17    18   ar
    27     6     7    1
    28     7     8    1
    29    26    27   ar
    30    27    28   ar
    31    28    29    1
    32    28    30   ar
    33    30    31    1
    34    35    36    1
    35    36    37    1
    36    36    38    1
    37    36    39    1
    38    30    24   ar
    39     7     1    1
    40    18    13   ar
    41    10    11    1
    42     8     9    1
    43    31    32    1
    44    31    33    1
@<TRIPOS>MOLECULE
*****
 42 44 0 0 0
SMALL
GASTEIGER

@<TRIPOS>ATOM
      1 C          63.9583   90.7913   13.8658 C.3     1  UNL1        0.0920
      2 C          65.2100   91.5244   13.4837 C.3     1  UNL1        0.2582
      3 S          65.4039   91.9918   12.0716 S.O     1  UNL1        0.0319
      4 O          66.6555   92.7249   11.6895 O.co2   1  UNL1       -0.6812
      5 C          64.3463   91.7261   11.0417 C.3     1  UNL1        0.2736
      6 C          63.0947   90.9930   11.4238 C.3     1  UNL1        0.1416
      7 C          62.9007   90.5256   12.8359 C.3     1  UNL1        0.1353
      8 O          61.6490   89.7925   13.2179 O.3     1  UNL1       -0.3827
      9 H          61.0752   89.7055   12.4407 H       1  UNL1        0.2104
     10 N          62.0370   90.7273   10.3938 N.3     1  UNL1       -0.2887
     11 H          62.5157   90.6301    9.4984 H       1  UNL1        0.1237
     12 C          61.1357   89.5365   10.5343 C.3     1  UNL1        0.0959
     13 C          60.5645   88.8799    9.3127 C.ar    1  UNL1       -0.0034
     14 C          59.7478   89.6814    8.3428 C.ar    1  UNL1       -0.0027
     15 C          59.1766   89.0248    7.1212 C.ar    1  UNL1        0.0028
     16 C          59.4221   87.5666    6.8692 C.ar    1  UNL1        0.0369
     17 C          60.2388   86.7651    7.8391 C.ar    1  UNL1        0.1381
     18 C          60.8100   87.4217    9.0608 C.ar    1  UNL1        0.0340
     19 O          60.4842   85.3069    7.5872 O.3     1  UNL1       -0.4792
     20 C          61.8099   84.8507    7.0540 C.3     1  UNL1        0.1661
     21 C          63.0380   84.9535    7.9093 C.3     1  UNL1        0.0472
     22 C          61.9077   84.2918    5.6654 C.3     1  UNL1        0.0472
     23 C          63.7643   90.3239   15.2779 C.3     1  UNL1        0.0342
     24 C          64.2486   86.4019   14.9125 C.ar    1  UNL1        0.1535
     25 C          64.2928   87.8700   14.6078 C.ar    1  UNL1        0.0341
     26 C          63.7200   88.8558   15.5826 C.ar    1  UNL1       -0.0166
     27 C          63.1031   88.3736   16.8619 C.ar    1  UNL1        0.0268
     28 C          63.0588   86.9056   17.1665 C.ar    1  UNL1        0.1556
     29 F          62.4418   86.4233   18.4460 F       1  UNL1       -0.2028
     30 C          63.6316   85.9197   16.1918 C.ar    1  UNL1        0.1037
     31 N          63.5873   84.4516   16.4965 N.pl3   1  UNL1       -0.3529
     32 H          63.1824   84.1352   17.3362 H       1  UNL1        0.1425
     33 H          63.9633   83.8046   15.8568 H       1  UNL1        0.1425
     34 O          64.8213   85.4161   13.9378 O.3     1  UNL1       -0.4665
     35 C          63.9254   84.4170   13.2676 C.3     1  UNL1        0.2891
     36 C          62.7832   84.8864   12.4161 C.3     1  UNL1        0.4366
     37 F          61.6410   85.3558   11.5646 F       1  UNL1       -0.1663
     38 F          61.8715   84.8262   13.6057 F       1  UNL1       -0.1663
     39 F          63.6948   84.9467   11.2265 F       1  UNL1       -0.1663
     40 C          64.1717   82.9485   13.4489 C.3     1  UNL1        0.1945
     41 C          62.1140   81.5722   14.2376 C.3     1  UNL1        0.1743
     42 O          63.4485   82.1940   14.5250 O.3     1  UNL1       -0.3469
@<TRIPOS>UNITY_ATOM_ATTR
3 1
charge 1
4 1
charge -1
@<TRIPOS>BOND
     1    41    42    1
     2    42    40    1
     3    35    40    1
     4    35    34    1
     5    34    24    1
     6    24    25   ar
     7    25    26   ar
     8    26    23    1
     9     1    23    1
    10     1     2    1
    11     2     3    1
    12     3     4    2
    13     3     5    1
    14     5     6    1
    15     6    10    1
    16    10    12    1
    17    12    13    1
    18    13    14   ar
    19    14    15   ar
    20    15    16   ar
    21    16    17   ar
    22    17    19    1
    23    19    20    1
    24    20    21    1
    25    20    22    1
    26    17    18   ar
    27     6     7    1
    28     7     8    1
    29    26    27   ar
    30    27    28   ar
    31    28    29    1
    32    28    30   ar
    33    30    31    1
    34    35    36    1
    35    36    37    1
    36    36    38    1
    37    36    39    1
    38    30    24   ar
    39     7     1    1
    40    18    13   ar
    41    10    11    1
    42     8     9    1
    43    31    32    1
    44    31    33    1
@<TRIPOS>MOLECULE
*****
 42 44 0 0 0
SMALL
GASTEIGER

@<TRIPOS>ATOM
      1 C          64.0976   90.9085   13.9919 C.3     1  UNL1        0.0920
      2 C          65.3783   91.6573   13.7703 C.3     1  UNL1        0.2582
      3 S          65.7264   92.1588   12.4001 S.O     1  UNL1        0.0319
      4 O          67.0071   92.9075   12.1784 O.co2   1  UNL1       -0.6812
      5 C          64.7937   91.9115   11.2516 C.3     1  UNL1        0.2736
      6 C          63.5130   91.1628   11.4733 C.3     1  UNL1        0.1416
      7 C          63.1649   90.6613   12.8435 C.3     1  UNL1        0.1353
      8 O          61.8842   89.9126   13.0651 O.3     1  UNL1       -0.3827
      9 H          61.4023   89.8407   12.2263 H       1  UNL1        0.2104
     10 N          62.5803   90.9155   10.3248 N.3     1  UNL1       -0.2887
     11 H          63.0696   90.2996    9.6755 H       1  UNL1        0.1237
     12 C          61.2334   90.3030   10.5710 C.3     1  UNL1        0.0959
     13 C          60.6946   89.2709    9.6253 C.ar    1  UNL1       -0.0034
     14 C          60.9119   87.8130    9.9031 C.ar    1  UNL1       -0.0027
     15 C          60.3732   86.7808    8.9573 C.ar    1  UNL1        0.0028
     16 C          59.6171   87.2066    7.7338 C.ar    1  UNL1        0.0369
     17 C          59.3998   88.6646    7.4560 C.ar    1  UNL1        0.1381
     18 C          59.9386   89.6967    8.4017 C.ar    1  UNL1        0.0340
     19 O          58.6437   89.0904    6.2324 O.3     1  UNL1       -0.4792
     20 C          58.9482   90.4080    5.5835 C.3     1  UNL1        0.1661
     21 C          57.8334   91.3535    5.2465 C.3     1  UNL1        0.0472
     22 C          60.3674   90.7802    5.2715 C.3     1  UNL1        0.0472
     23 C          63.7495   90.4071   15.3621 C.3     1  UNL1        0.0342
     24 C          64.2588   86.4972   14.9105 C.ar    1  UNL1        0.1535
     25 C          64.2929   87.9718   14.6379 C.ar    1  UNL1        0.0341
     26 C          63.7154   88.9324   15.6348 C.ar    1  UNL1       -0.0166
     27 C          63.1038   88.4184   16.9043 C.ar    1  UNL1        0.0268
     28 C          63.0697   86.9438   17.1769 C.ar    1  UNL1        0.1556
     29 F          62.4581   86.4297   18.4465 F       1  UNL1       -0.2028
     30 C          63.6472   85.9832   16.1800 C.ar    1  UNL1        0.1037
     31 N          63.6131   84.5086   16.4527 N.pl3   1  UNL1       -0.3529
     32 H          63.2117   84.1712   17.2860 H       1  UNL1        0.1425
     33 H          63.9921   83.8781   15.7984 H       1  UNL1        0.1425
     34 O          64.8363   85.5367   13.9137 O.3     1  UNL1       -0.4665
     35 C          63.9642   84.4866   13.2917 C.3     1  UNL1        0.2891
     36 C          62.7656   84.8888   12.4845 C.3     1  UNL1        0.4366
     37 F          61.5671   85.2910   11.6772 F       1  UNL1       -0.1663
     38 F          61.9177   84.8438   13.7209 F       1  UNL1       -0.1663
     39 F          63.6135   84.9338   11.2480 F       1  UNL1       -0.1663
     40 C          64.2907   83.0343   13.4770 C.3     1  UNL1        0.1945
     41 C          62.2457   81.6003   14.1924 C.3     1  UNL1        0.1743
     42 O          63.5680   82.2299   14.5166 O.3     1  UNL1       -0.3469
@<TRIPOS>UNITY_ATOM_ATTR
3 1
charge 1
4 1
charge -1
@<TRIPOS>BOND
     1    41    42    1
     2    42    40    1
     3    35    40    1
     4    35    34    1
     5    34    24    1
     6    24    25   ar
     7    25    26   ar
     8    26    23    1
     9     1    23    1
    10     1     2    1
    11     2     3    1
    12     3     4    2
    13     3     5    1
    14     5     6    1
    15     6    10    1
    16    10    12    1
    17    12    13    1
    18    13    14   ar
    19    14    15   ar
    20    15    16   ar
    21    16    17   ar
    22    17    19    1
    23    19    20    1
    24    20    21    1
    25    20    22    1
    26    17    18   ar
    27     6     7    1
    28     7     8    1
    29    26    27   ar
    30    27    28   ar
    31    28    29    1
    32    28    30   ar
    33    30    31    1
    34    35    36    1
    35    36    37    1
    36    36    38    1
    37    36    39    1
    38    30    24   ar
    39     7     1    1
    40    18    13   ar
    41    10    11    1
    42     8     9    1
    43    31    32    1
    44    31    33    1
@<TRIPOS>MOLECULE
*****
 42 44 0 0 0
SMALL
GASTEIGER

@<TRIPOS>ATOM
      1 C          61.8853   90.1975   10.5503 C.3     1  UNL1        0.0920
      2 C          60.6619   90.8379   11.1362 C.3     1  UNL1        0.2582
      3 S          59.5251   89.9845   11.6154 S.O     1  UNL1        0.0319
      4 O          58.3018   90.6248   12.2013 O.co2   1  UNL1       -0.6812
      5 C          59.6119   88.4908   11.5087 C.3     1  UNL1        0.2736
      6 C          60.8352   87.8505   10.9227 C.3     1  UNL1        0.1416
      7 C          61.9719   88.7039   10.4435 C.3     1  UNL1        0.1353
      8 O          63.1954   88.0635    9.8576 O.3     1  UNL1       -0.3827
      9 H          63.0894   87.0993    9.8624 H       1  UNL1        0.2104
     10 N          60.9219   86.3567   10.8160 N.3     1  UNL1       -0.2887
     11 H          60.5541   86.1053    9.8985 H       1  UNL1        0.1237
     12 C          62.2488   85.6708   10.9534 C.3     1  UNL1        0.0959
     13 C          62.7518   85.2754   12.3101 C.ar    1  UNL1       -0.0034
     14 C          63.6041   86.2240   13.0998 C.ar    1  UNL1       -0.0027
     15 C          64.1071   85.8287   14.4565 C.ar    1  UNL1        0.0028
     16 C          63.7576   84.4846   15.0236 C.ar    1  UNL1        0.0369
     17 C          62.9053   83.5360   14.2339 C.ar    1  UNL1        0.1381
     18 C          62.4023   83.9314   12.8771 C.ar    1  UNL1        0.0340
     19 O          62.5559   82.1920   14.8009 O.3     1  UNL1       -0.4792
     20 C          61.9567   81.1381   13.9176 C.3     1  UNL1        0.1661
     21 C          62.7843   80.5039   12.8392 C.3     1  UNL1        0.0472
     22 C          60.5298   80.7185   14.1125 C.3     1  UNL1        0.0472
     23 C          63.0220   91.0509   10.0711 C.3     1  UNL1        0.0342
     24 C          66.1133   93.0304   11.5794 C.ar    1  UNL1        0.1535
     25 C          65.0787   92.5448   10.6080 C.ar    1  UNL1        0.0341
     26 C          64.0567   91.5365   11.0425 C.ar    1  UNL1       -0.0166
     27 C          64.0692   91.0139   12.4485 C.ar    1  UNL1        0.0268
     28 C          65.1038   91.4995   13.4199 C.ar    1  UNL1        0.1556
     29 F          65.1165   90.9769   14.8259 F       1  UNL1       -0.2028
     30 C          66.1259   92.5078   12.9853 C.ar    1  UNL1        0.1037
     31 N          67.1606   92.9935   13.9568 N.pl3   1  UNL1       -0.3529
     32 H          67.1688   92.6504   14.8796 H       1  UNL1        0.1425
     33 H          67.8314   93.6552   13.6717 H       1  UNL1        0.1425
     34 O          67.1354   94.0387   11.1449 O.3     1  UNL1       -0.4665
     35 C          67.4636   94.1946    9.6896 C.3     1  UNL1        0.2891
     36 C          68.2635   93.1399    8.9840 C.3     1  UNL1        0.4366
     37 F          69.0633   92.0852    8.2783 F       1  UNL1       -0.1663
     38 F          68.5481   92.4761   10.2986 F       1  UNL1       -0.1663
     39 F          67.9788   93.8036    7.6693 F       1  UNL1       -0.1663
     40 C          66.9920   95.4052    8.9399 C.3     1  UNL1        0.1945
     41 C          64.8991   96.5735    9.9423 C.3     1  UNL1        0.1743
     42 O          66.3762   96.5542    9.6820 O.3     1  UNL1       -0.3469
@<TRIPOS>UNITY_ATOM_ATTR
3 1
charge 1
4 1
charge -1
@<TRIPOS>BOND
     1    41    42    1
     2    42    40    1
     3    35    40    1
     4    35    34    1
     5    34    24    1
     6    24    25   ar
     7    25    26   ar
     8    26    23    1
     9     1    23    1
    10     1     2    1
    11     2     3    1
    12     3     4    2
    13     3     5    1
    14     5     6    1
    15     6    10    1
    16    10    12    1
    17    12    13    1
    18    13    14   ar
    19    14    15   ar
    20    15    16   ar
    21    16    17   ar
    22    17    19    1
    23    19    20    1
    24    20    21    1
    25    20    22    1
    26    17    18   ar
    27     6     7    1
    28     7     8    1
    29    26    27   ar
    30    27    28   ar
    31    28    29    1
    32    28    30   ar
    33    30    31    1
    34    35    36    1
    35    36    37    1
    36    36    38    1
    37    36    39    1
    38    30    24   ar
    39     7     1    1
    40    18    13   ar
    41    10    11    1
    42     8     9    1
    43    31    32    1
    44    31    33    1
