@<TRIPOS>MOLECULE
*****
 36 40 0 0 0
SMALL
GASTEIGER

@<TRIPOS>ATOM
      1 C          63.3296   86.2726    9.9457 C.3     1  UNL1        0.0473
      2 C          63.0306   85.2429   10.9947 C.3     1  UNL1        0.1699
      3 O          62.6003   83.8280   10.7439 O.3     1  UNL1       -0.4521
      4 C          62.4132   83.1579   12.0727 C.2     1  UNL1        0.3217
      5 O          61.9799   81.7294   11.9256 O.2     1  UNL1       -0.2499
      6 C          62.7279   84.1586   13.1449 C.3     1  UNL1        0.1588
      7 C          62.7163   84.0630   14.6418 C.3     1  UNL1        0.0830
      8 C          63.0863   85.2560   15.4724 C.3     1  UNL1        0.2648
      9 F          63.3563   86.1036   16.6801 F       1  UNL1       -0.2043
     10 F          62.7985   84.2618   16.5581 F       1  UNL1       -0.2043
     11 C          63.4679   86.5445   14.8061 C.3     1  UNL1        0.0655
     12 C          63.8379   87.7375   15.6368 C.3     1  UNL1        0.0060
     13 C          63.4795   86.6402   13.3092 C.3     1  UNL1        0.0315
     14 C          63.1095   85.4472   12.4786 C.3     1  UNL1        0.0601
     15 C          62.3267   82.8109   13.6670 C.3     1  UNL1        0.3020
     16 N          63.2553   81.7573   14.1940 N.2     1  UNL1       -0.1365
     17 N          62.4290   80.5754   14.6065 N.am    1  UNL1       -0.0430
     18 C          60.9897   80.8984   14.3346 C.2     1  UNL1        0.4442
     19 O          59.8191   79.9980   14.5972 O.2     1  UNL1       -0.2225
     20 O          60.9265   82.2801   13.7539 O.3     1  UNL1       -0.4107
     21 C          63.8612   87.9288   12.6429 C.2     1  UNL1       -0.0246
     22 C          64.2216   89.1246   13.4737 C.2     1  UNL1        0.0145
     23 C          64.6032   90.4132   12.8074 C.ar    1  UNL1        0.0810
     24 C          63.9683   90.8007   11.5048 C.ar    1  UNL1        0.0191
     25 C          64.3498   92.0893   10.8385 C.ar    1  UNL1        0.0031
     26 C          65.3664   92.9903   11.4747 C.ar    1  UNL1        0.0198
     27 C          66.0014   92.6027   12.7773 C.ar    1  UNL1        0.0988
     28 N          65.6198   91.3141   13.4436 N.ar    1  UNL1       -0.2438
     29 C          65.7480   94.2789   10.8084 C.ar    1  UNL1        0.0111
     30 C          64.9891   95.5356   11.1159 C.ar    1  UNL1        0.0007
     31 C          65.3707   96.8242   10.4496 C.ar    1  UNL1        0.0000
     32 C          66.5112   96.8560    9.4758 C.ar    1  UNL1        0.0007
     33 C          67.2701   95.5992    9.1683 C.ar    1  UNL1        0.0103
     34 C          66.8885   94.3107    9.8346 C.ar    1  UNL1        0.0685
     35 C          67.6474   93.0539    9.5271 C.1     1  UNL1        0.1004
     36 N          68.4063   91.7971    9.2197 N.1     1  UNL1       -0.1908
@<TRIPOS>BOND
     1     2     1    1
     2     2     3    1
     3     3     4    1
     4     4     5    2
     5     4     6    1
     6     6    15    1
     7    15    16    1
     8    16    17    2
     9    17    18    1
    10    18    19    2
    11    18    20    1
    12     6     7    1
    13     7     8    1
    14     8     9    1
    15     8    10    1
    16     8    11    1
    17    11    12    1
    18    11    13    1
    19    13    21    1
    20    21    22    2
    21    22    23    1
    22    23    24   ar
    23    24    25   ar
    24    25    26   ar
    25    26    29    1
    26    29    30   ar
    27    30    31   ar
    28    31    32   ar
    29    32    33   ar
    30    33    34   ar
    31    34    35    1
    32    35    36    3
    33    26    27   ar
    34    27    28   ar
    35    13    14    1
    36    14     2    1
    37    14     6    1
    38    20    15    1
    39    28    23   ar
    40    34    29   ar
@<TRIPOS>MOLECULE
*****
 36 40 0 0 0
SMALL
GASTEIGER

@<TRIPOS>ATOM
      1 C          63.4421   85.6482   10.2095 C.3     1  UNL1        0.0473
      2 C          63.0871   84.5539   11.1720 C.3     1  UNL1        0.1699
      3 O          62.6575   83.1638   10.8071 O.3     1  UNL1       -0.4521
      4 C          62.4043   82.4083   12.0780 C.2     1  UNL1        0.3217
      5 O          61.9669   80.9977   11.8154 O.2     1  UNL1       -0.2499
      6 C          62.6774   83.3314   13.2283 C.3     1  UNL1        0.1588
      7 C          62.5963   83.1359   14.7133 C.3     1  UNL1        0.0830
      8 C          62.9372   84.2664   15.6383 C.3     1  UNL1        0.2648
      9 F          63.1582   85.0282   16.9114 F       1  UNL1       -0.2043
     10 F          62.5920   83.2050   16.6404 F       1  UNL1       -0.2043
     11 C          63.3592   85.5924   15.0784 C.3     1  UNL1        0.0655
     12 C          63.7002   86.7229   16.0035 C.3     1  UNL1        0.0060
     13 C          63.4403   85.7880   13.5934 C.3     1  UNL1        0.0315
     14 C          63.0994   84.6575   12.6684 C.3     1  UNL1        0.0601
     15 C          62.2420   81.9562   13.6397 C.3     1  UNL1        0.3020
     16 N          63.1471   80.8169   14.0039 N.2     1  UNL1       -0.1365
     17 N          62.2895   79.6354   14.3484 N.am    1  UNL1       -0.0430
     18 C          60.8544   80.0445   14.1972 C.2     1  UNL1        0.4442
     19 O          59.6585   79.1725   14.4412 O.2     1  UNL1       -0.2225
     20 O          60.8250   81.4789   13.7592 O.3     1  UNL1       -0.4107
     21 C          63.8623   87.1141   13.0335 C.2     1  UNL1       -0.0246
     22 C          63.8204   88.3402   13.8965 C.2     1  UNL1        0.0145
     23 C          64.2424   89.6662   13.3366 C.ar    1  UNL1        0.0810
     24 C          63.5920   90.1966   12.0934 C.ar    1  UNL1        0.0191
     25 C          64.0140   91.5227   11.5333 C.ar    1  UNL1        0.0031
     26 C          65.0864   92.3183   12.2166 C.ar    1  UNL1        0.0198
     27 C          65.7369   91.7878   13.4599 C.ar    1  UNL1        0.0988
     28 N          65.3148   90.4618   14.0199 N.ar    1  UNL1       -0.2438
     29 C          65.5085   93.6443   11.6567 C.ar    1  UNL1        0.0111
     30 C          65.1153   94.0284   10.2610 C.ar    1  UNL1        0.0007
     31 C          65.5374   95.3544    9.7011 C.ar    1  UNL1        0.0000
     32 C          66.3525   96.2963   10.5368 C.ar    1  UNL1        0.0007
     33 C          66.7456   95.9122   11.9324 C.ar    1  UNL1        0.0103
     34 C          66.3236   94.5862   12.4924 C.ar    1  UNL1        0.0685
     35 C          66.7167   94.2020   13.8880 C.1     1  UNL1        0.1004
     36 N          67.1097   93.8179   15.2837 N.1     1  UNL1       -0.1908
@<TRIPOS>BOND
     1     2     1    1
     2     2     3    1
     3     3     4    1
     4     4     5    2
     5     4     6    1
     6     6    15    1
     7    15    16    1
     8    16    17    2
     9    17    18    1
    10    18    19    2
    11    18    20    1
    12     6     7    1
    13     7     8    1
    14     8     9    1
    15     8    10    1
    16     8    11    1
    17    11    12    1
    18    11    13    1
    19    13    21    1
    20    21    22    2
    21    22    23    1
    22    23    24   ar
    23    24    25   ar
    24    25    26   ar
    25    26    29    1
    26    29    30   ar
    27    30    31   ar
    28    31    32   ar
    29    32    33   ar
    30    33    34   ar
    31    34    35    1
    32    35    36    3
    33    26    27   ar
    34    27    28   ar
    35    13    14    1
    36    14     2    1
    37    14     6    1
    38    20    15    1
    39    28    23   ar
    40    34    29   ar
