@<TRIPOS>MOLECULE
*****
 37 41 0 0 0
SMALL
GASTEIGER

@<TRIPOS>ATOM
      1 C          60.4197   88.4480    8.7430 C.ar    1  UNL1        0.0140
      2 C          61.3101   89.4404    9.4304 C.ar    1  UNL1        0.0011
      3 C          62.2523   88.9846   10.5048 C.ar    1  UNL1        0.0000
      4 C          62.3042   87.5363   10.8919 C.ar    1  UNL1        0.0000
      5 C          63.2465   87.0804   11.9663 C.ar    1  UNL1        0.0000
      6 C          63.2983   85.6322   12.3533 C.ar    1  UNL1       -0.0000
      7 C          62.4080   84.6398   11.6660 C.ar    1  UNL1       -0.0000
      8 C          61.4658   85.0956   10.5916 C.ar    1  UNL1        0.0000
      9 C          61.4139   86.5439   10.2046 C.ar    1  UNL1        0.0000
     10 C          60.4716   86.9998    9.1301 C.ar    1  UNL1        0.0011
     11 C          63.1426   89.9770   11.1921 C.ar    1  UNL1        0.0000
     12 C          63.4077   89.8538   12.6633 C.ar    1  UNL1        0.0000
     13 C          64.2981   90.8462   13.3507 C.ar    1  UNL1        0.0016
     14 C          64.9233   91.9618   12.5668 C.ar    1  UNL1        0.0209
     15 C          64.6582   92.0850   11.0955 C.ar    1  UNL1        0.0016
     16 C          63.7679   91.0926   10.4082 C.ar    1  UNL1        0.0000
     17 C          65.8136   92.9542   13.2541 C.ar    1  UNL1        0.1228
     18 C          66.7672   92.6564   14.3731 C.ar    1  UNL1        0.0606
     19 C          67.4496   93.9368   14.7537 C.ar    1  UNL1        0.1839
     20 O          66.9179   95.0260   13.8700 O.2     1  UNL1       -0.3552
     21 N          65.9068   94.4187   12.9432 N.ar    1  UNL1       -0.0773
     22 C          68.4825   94.0995   15.8292 C.3     1  UNL1        0.2048
     23 O          69.2016   92.8977   16.3663 O.3     1  UNL1       -0.3747
     24 H          68.5717   92.3251   16.8314 H       1  UNL1        0.2110
     25 C          62.4599   83.1915   12.0531 C.ar    1  UNL1       -0.0000
     26 C          62.0823   82.7727   13.4430 C.ar    1  UNL1       -0.0001
     27 C          62.1342   81.3243   13.8302 C.ar    1  UNL1        0.0039
     28 C          62.5638   80.2949   12.8273 C.ar    1  UNL1        0.0714
     29 C          62.9415   80.7138   11.4373 C.ar    1  UNL1        0.0039
     30 C          62.8896   82.1621   11.0503 C.ar    1  UNL1       -0.0001
     31 C          62.6157   78.8467   13.2143 C.3     1  UNL1        0.4186
     32 F          62.6677   77.3985   13.6014 F       1  UNL1       -0.1659
     33 F          62.5497   78.4576   11.7672 F       1  UNL1       -0.1659
     34 F          62.6818   79.2358   14.6614 F       1  UNL1       -0.1659
     35 O          59.8148   90.1045    6.8351 O.co2   1  UNL1       -0.5446
     36 C          59.4775   88.9039    7.6686 C.2     1  UNL1        0.0729
     37 O          58.1979   88.1591    7.4276 O.co2   1  UNL1       -0.5446
@<TRIPOS>UNITY_ATOM_ATTR
35 1
charge -1
@<TRIPOS>BOND
     1    35    36   ar
     2    36    37   ar
     3    36     1    1
     4     1     2   ar
     5     2     3   ar
     6     3    11    1
     7    11    12   ar
     8    12    13   ar
     9    13    14   ar
    10    14    17    1
    11    17    18   ar
    12    18    19   ar
    13    19    22    1
    14    22    23    1
    15    19    20   ar
    16    20    21   ar
    17    14    15   ar
    18    15    16   ar
    19     3     4   ar
    20     4     5   ar
    21     5     6   ar
    22     6     7   ar
    23     7    25    1
    24    25    26   ar
    25    26    27   ar
    26    27    28   ar
    27    28    31    1
    28    31    32    1
    29    31    33    1
    30    31    34    1
    31    28    29   ar
    32    29    30   ar
    33     7     8   ar
    34     8     9   ar
    35     9    10   ar
    36    10     1   ar
    37    16    11   ar
    38     9     4   ar
    39    21    17   ar
    40    30    25   ar
    41    23    24    1
@<TRIPOS>MOLECULE
*****
 37 41 0 0 0
SMALL
GASTEIGER

@<TRIPOS>ATOM
      1 C          60.6405   88.2811    9.1223 C.ar    1  UNL1        0.0140
      2 C          61.4467   89.1226   10.0667 C.ar    1  UNL1        0.0011
      3 C          62.3315   88.4680   11.0859 C.ar    1  UNL1        0.0000
      4 C          62.4100   86.9719   11.1606 C.ar    1  UNL1        0.0000
      5 C          63.2948   86.3172   12.1797 C.ar    1  UNL1        0.0000
      6 C          63.3733   84.8212   12.2544 C.ar    1  UNL1       -0.0000
      7 C          62.5670   83.9798   11.3099 C.ar    1  UNL1       -0.0000
      8 C          61.6823   84.6344   10.2908 C.ar    1  UNL1        0.0000
      9 C          61.6038   86.1304   10.2161 C.ar    1  UNL1        0.0000
     10 C          60.7190   86.7851    9.1970 C.ar    1  UNL1        0.0011
     11 C          63.1377   89.3094   12.0303 C.ar    1  UNL1        0.0000
     12 C          63.5909   88.7400   13.3419 C.ar    1  UNL1        0.0000
     13 C          64.3972   89.5814   14.2863 C.ar    1  UNL1        0.0016
     14 C          64.7501   90.9923   13.9192 C.ar    1  UNL1        0.0209
     15 C          64.2969   91.5618   12.6075 C.ar    1  UNL1        0.0016
     16 C          63.4906   90.7204   11.6631 C.ar    1  UNL1        0.0000
     17 C          65.5564   91.8338   14.8636 C.ar    1  UNL1        0.1228
     18 C          66.9537   92.3272   14.6315 C.ar    1  UNL1        0.0606
     19 C          67.3678   93.1279   15.8304 C.ar    1  UNL1        0.1839
     20 O          66.2263   93.1293   16.8036 O.2     1  UNL1       -0.3552
     21 N          65.1068   92.3295   16.2061 N.ar    1  UNL1       -0.0773
     22 C          68.6910   93.8078   16.0224 C.3     1  UNL1        0.2048
     23 O          69.8357   93.4935   15.1055 O.3     1  UNL1       -0.3747
     24 H          70.1074   92.5710   15.2319 H       1  UNL1        0.2110
     25 C          62.6456   82.4836   11.3847 C.ar    1  UNL1       -0.0000
     26 C          63.0633   81.6934   10.1801 C.ar    1  UNL1       -0.0001
     27 C          63.1419   80.1973   10.2548 C.ar    1  UNL1        0.0039
     28 C          62.8027   79.4915   11.5342 C.ar    1  UNL1        0.0714
     29 C          62.3849   80.2817   12.7388 C.ar    1  UNL1        0.0039
     30 C          62.3064   81.7778   12.6640 C.ar    1  UNL1       -0.0001
     31 C          62.8812   77.9954   11.6089 C.3     1  UNL1        0.4186
     32 F          62.9597   76.4994   11.6837 F       1  UNL1       -0.1659
     33 F          62.7110   78.0609   13.0978 F       1  UNL1       -0.1659
     34 F          63.0515   77.9299   10.1201 F       1  UNL1       -0.1659
     35 O          58.6086   88.1754    7.5065 O.co2   1  UNL1       -0.5446
     36 C          59.7557   88.9358    8.1031 C.2     1  UNL1        0.0729
     37 O          60.0180   90.3510    7.6806 O.co2   1  UNL1       -0.5446
@<TRIPOS>UNITY_ATOM_ATTR
35 1
charge -1
@<TRIPOS>BOND
     1    35    36   ar
     2    36    37   ar
     3    36     1    1
     4     1     2   ar
     5     2     3   ar
     6     3    11    1
     7    11    12   ar
     8    12    13   ar
     9    13    14   ar
    10    14    17    1
    11    17    18   ar
    12    18    19   ar
    13    19    22    1
    14    22    23    1
    15    19    20   ar
    16    20    21   ar
    17    14    15   ar
    18    15    16   ar
    19     3     4   ar
    20     4     5   ar
    21     5     6   ar
    22     6     7   ar
    23     7    25    1
    24    25    26   ar
    25    26    27   ar
    26    27    28   ar
    27    28    31    1
    28    31    32    1
    29    31    33    1
    30    31    34    1
    31    28    29   ar
    32    29    30   ar
    33     7     8   ar
    34     8     9   ar
    35     9    10   ar
    36    10     1   ar
    37    16    11   ar
    38     9     4   ar
    39    21    17   ar
    40    30    25   ar
    41    23    24    1
@<TRIPOS>MOLECULE
*****
 37 41 0 0 0
SMALL
GASTEIGER

@<TRIPOS>ATOM
      1 C          62.5765   85.6943   12.7610 C.ar    1  UNL1        0.0140
      2 C          61.7820   86.2677   11.6253 C.ar    1  UNL1        0.0011
      3 C          61.9731   87.7004   11.2244 C.ar    1  UNL1        0.0000
      4 C          62.9589   88.5598   11.9592 C.ar    1  UNL1        0.0000
      5 C          63.1501   89.9925   11.5582 C.ar    1  UNL1        0.0000
      6 C          64.1358   90.8517   12.2930 C.ar    1  UNL1       -0.0000
      7 C          64.9303   90.2783   13.4288 C.ar    1  UNL1       -0.0000
      8 C          64.7392   88.8456   13.8297 C.ar    1  UNL1        0.0000
      9 C          63.7535   87.9863   13.0949 C.ar    1  UNL1        0.0000
     10 C          63.5622   86.5536   13.4958 C.ar    1  UNL1        0.0011
     11 C          61.1786   88.2738   10.0886 C.ar    1  UNL1        0.0000
     12 C          60.9251   87.4514    8.8602 C.ar    1  UNL1        0.0000
     13 C          60.1306   88.0248    7.7244 C.ar    1  UNL1        0.0016
     14 C          59.5895   89.4207    7.8172 C.ar    1  UNL1        0.0209
     15 C          59.8430   90.2433    9.0457 C.ar    1  UNL1        0.0016
     16 C          60.6376   89.6698   10.1814 C.ar    1  UNL1        0.0000
     17 C          58.7950   89.9941    6.6814 C.ar    1  UNL1        0.1228
     18 C          59.3181   90.9059    5.6113 C.ar    1  UNL1        0.0606
     19 C          58.1842   91.2317    4.6849 C.ar    1  UNL1        0.1839
     20 O          56.9604   90.5214    5.1825 O.2     1  UNL1       -0.3552
     21 N          57.3378   89.7565    6.4164 N.ar    1  UNL1       -0.0773
     22 C          58.2608   92.1132    3.4737 C.3     1  UNL1        0.2048
     23 O          59.4763   92.9599    3.2380 O.3     1  UNL1       -0.3747
     24 H          59.5410   93.6333    3.9332 H       1  UNL1        0.2110
     25 C          65.9161   91.1377   14.1636 C.ar    1  UNL1       -0.0000
     26 C          67.3080   91.3059   13.6306 C.ar    1  UNL1       -0.0001
     27 C          68.2938   92.1652   14.3654 C.ar    1  UNL1        0.0039
     28 C          67.8875   92.8563   15.6332 C.ar    1  UNL1        0.0714
     29 C          66.4955   92.6881   16.1662 C.ar    1  UNL1        0.0039
     30 C          65.5098   91.8288   15.4314 C.ar    1  UNL1       -0.0001
     31 C          68.8732   93.7156   16.3680 C.3     1  UNL1        0.4186
     32 F          69.8589   94.5750   17.1028 F       1  UNL1       -0.1659
     33 F          69.5330   92.4868   16.9199 F       1  UNL1       -0.1659
     34 F          68.2133   94.9444   15.8161 F       1  UNL1       -0.1659
     35 O          62.1832   83.9072   14.6054 O.co2   1  UNL1       -0.5446
     36 C          62.3853   84.2615   13.1619 C.2     1  UNL1        0.0729
     37 O          62.3962   83.1831   12.1194 O.co2   1  UNL1       -0.5446
@<TRIPOS>UNITY_ATOM_ATTR
35 1
charge -1
@<TRIPOS>BOND
     1    35    36   ar
     2    36    37   ar
     3    36     1    1
     4     1     2   ar
     5     2     3   ar
     6     3    11    1
     7    11    12   ar
     8    12    13   ar
     9    13    14   ar
    10    14    17    1
    11    17    18   ar
    12    18    19   ar
    13    19    22    1
    14    22    23    1
    15    19    20   ar
    16    20    21   ar
    17    14    15   ar
    18    15    16   ar
    19     3     4   ar
    20     4     5   ar
    21     5     6   ar
    22     6     7   ar
    23     7    25    1
    24    25    26   ar
    25    26    27   ar
    26    27    28   ar
    27    28    31    1
    28    31    32    1
    29    31    33    1
    30    31    34    1
    31    28    29   ar
    32    29    30   ar
    33     7     8   ar
    34     8     9   ar
    35     9    10   ar
    36    10     1   ar
    37    16    11   ar
    38     9     4   ar
    39    21    17   ar
    40    30    25   ar
    41    23    24    1
@<TRIPOS>MOLECULE
*****
 37 41 0 0 0
SMALL
GASTEIGER

@<TRIPOS>ATOM
      1 C          63.2554   93.3094    1.1765 C.ar    1  UNL1        0.0140
      2 C          62.0220   93.7615    0.4524 C.ar    1  UNL1        0.0011
      3 C          60.6661   93.4413    1.0083 C.ar    1  UNL1        0.0000
      4 C          60.5436   92.6689    2.2883 C.ar    1  UNL1        0.0000
      5 C          59.1877   92.3487    2.8442 C.ar    1  UNL1        0.0000
      6 C          59.0652   91.5763    4.1242 C.ar    1  UNL1       -0.0000
      7 C          60.2986   91.1242    4.8483 C.ar    1  UNL1       -0.0000
      8 C          61.6545   91.4444    4.2925 C.ar    1  UNL1        0.0000
      9 C          61.7769   92.2168    3.0125 C.ar    1  UNL1        0.0000
     10 C          63.1329   92.5370    2.4565 C.ar    1  UNL1        0.0011
     11 C          59.4328   93.8934    0.2841 C.ar    1  UNL1        0.0000
     12 C          59.1413   95.3578    0.1413 C.ar    1  UNL1        0.0000
     13 C          57.9080   95.8100   -0.5829 C.ar    1  UNL1        0.0016
     14 C          56.9660   94.7977   -1.1641 C.ar    1  UNL1        0.0209
     15 C          57.2574   93.3331   -1.0212 C.ar    1  UNL1        0.0016
     16 C          58.4908   92.8810   -0.2971 C.ar    1  UNL1        0.0000
     17 C          55.7326   95.2498   -1.8882 C.ar    1  UNL1        0.1228
     18 C          54.3783   95.4579   -1.2779 C.ar    1  UNL1        0.0606
     19 C          53.4457   95.9099   -2.3623 C.ar    1  UNL1        0.1839
     20 O          54.2236   95.9812   -3.6428 O.2     1  UNL1       -0.3552
     21 N          55.6370   95.5732   -3.3498 N.ar    1  UNL1       -0.0773
     22 C          51.9906   96.2338   -2.1954 C.3     1  UNL1        0.2048
     23 O          50.9530   95.4055   -2.8935 O.3     1  UNL1       -0.3747
     24 H          51.0367   95.5235   -3.8527 H       1  UNL1        0.2110
     25 C          60.1760   90.3518    6.1284 C.ar    1  UNL1       -0.0000
     26 C          61.0251   90.7179    7.3095 C.ar    1  UNL1       -0.0001
     27 C          60.9025   89.9455    8.5895 C.ar    1  UNL1        0.0039
     28 C          59.9309   88.8071    8.6884 C.ar    1  UNL1        0.0714
     29 C          59.0818   88.4410    7.5072 C.ar    1  UNL1        0.0039
     30 C          59.2044   89.2133    6.2273 C.ar    1  UNL1       -0.0001
     31 C          59.8083   88.0347    9.9684 C.3     1  UNL1        0.4186
     32 F          59.6857   87.2623   11.2484 F       1  UNL1       -0.1659
     33 F          59.9044   86.7490    9.2018 F       1  UNL1       -0.1659
     34 F          59.7122   89.3204   10.7350 F       1  UNL1       -0.1659
     35 O          65.7181   92.6217    0.7159 O.co2   1  UNL1       -0.5446
     36 C          64.6113   93.6296    0.6206 C.2     1  UNL1        0.0729
     37 O          64.8603   94.9578   -0.0306 O.co2   1  UNL1       -0.5446
@<TRIPOS>UNITY_ATOM_ATTR
35 1
charge -1
@<TRIPOS>BOND
     1    35    36   ar
     2    36    37   ar
     3    36     1    1
     4     1     2   ar
     5     2     3   ar
     6     3    11    1
     7    11    12   ar
     8    12    13   ar
     9    13    14   ar
    10    14    17    1
    11    17    18   ar
    12    18    19   ar
    13    19    22    1
    14    22    23    1
    15    19    20   ar
    16    20    21   ar
    17    14    15   ar
    18    15    16   ar
    19     3     4   ar
    20     4     5   ar
    21     5     6   ar
    22     6     7   ar
    23     7    25    1
    24    25    26   ar
    25    26    27   ar
    26    27    28   ar
    27    28    31    1
    28    31    32    1
    29    31    33    1
    30    31    34    1
    31    28    29   ar
    32    29    30   ar
    33     7     8   ar
    34     8     9   ar
    35     9    10   ar
    36    10     1   ar
    37    16    11   ar
    38     9     4   ar
    39    21    17   ar
    40    30    25   ar
    41    23    24    1
