@<TRIPOS>MOLECULE
*****
 26 28 0 0 0
SMALL
GASTEIGER

@<TRIPOS>ATOM
      1 C          64.4377   90.7266   12.9431 C.ar    1  UNL1        0.0962
      2 C          63.8704   91.4155   11.7375 C.ar    1  UNL1        0.0184
      3 C          62.9473   90.6750   10.8158 C.ar    1  UNL1        0.0015
      4 C          62.5916   89.2457   11.0996 C.ar    1  UNL1        0.0023
      5 C          63.1590   88.5569   12.3052 C.ar    1  UNL1        0.0310
      6 C          64.0820   89.2973   13.2270 C.ar    1  UNL1        0.1549
      7 F          64.6494   88.6084   14.4327 F       1  UNL1       -0.2028
      8 C          61.6685   88.5053   10.1778 C.ar    1  UNL1        0.0002
      9 C          61.7013   87.0065   10.1284 C.ar    1  UNL1        0.0023
     10 C          60.7782   86.2662    9.2066 C.ar    1  UNL1        0.0296
     11 C          59.8224   87.0246    8.3342 C.ar    1  UNL1        0.1401
     12 F          58.8993   86.2842    7.4123 F       1  UNL1       -0.2042
     13 C          59.7896   88.5234    8.3836 C.ar    1  UNL1        0.0296
     14 C          60.7127   89.2638    9.3054 C.ar    1  UNL1        0.0023
     15 N          65.3608   91.4670   13.8650 N.pl3   1  UNL1       -0.1876
     16 C          64.5237   92.0326   16.6898 C.3     1  UNL1        0.1999
     17 S          64.9423   91.7498   15.2774 S.O2    1  UNL1        0.0591
     18 O          66.3686   92.0363   15.6427 O.2     1  UNL1       -0.1542
     19 O          63.5159   91.4633   14.9120 O.2     1  UNL1       -0.1542
     20 C          66.7024   91.9246   13.3744 C.3     1  UNL1        0.1434
     21 C          66.7967   92.8230   12.1768 C.ar    1  UNL1        0.0186
     22 C          67.4023   92.3132   10.9027 C.ar    1  UNL1        0.0006
     23 C          67.4965   93.2115    9.7052 C.ar    1  UNL1        0.0204
     24 C          66.9851   94.6196    9.7817 C.ar    1  UNL1        0.0989
     25 N          66.3794   95.1293   11.0558 N.ar    1  UNL1       -0.2426
     26 C          66.2852   94.2310   12.2533 C.ar    1  UNL1        0.0963
@<TRIPOS>BOND
     1    16    17    1
     2    17    18    2
     3    17    19    2
     4    17    15    1
     5    15    20    1
     6    20    21    1
     7    21    22   ar
     8    22    23   ar
     9    23    24   ar
    10    24    25   ar
    11    25    26   ar
    12    15     1    1
    13     1     2   ar
    14     2     3   ar
    15     3     4   ar
    16     4     8    1
    17     8     9   ar
    18     9    10   ar
    19    10    11   ar
    20    11    12    1
    21    11    13   ar
    22    13    14   ar
    23     4     5   ar
    24     5     6   ar
    25     6     7    1
    26    26    21   ar
    27     6     1   ar
    28    14     8   ar
@<TRIPOS>MOLECULE
*****
 26 28 0 0 0
SMALL
GASTEIGER

@<TRIPOS>ATOM
      1 C          65.1547   92.2748   12.1883 C.ar    1  UNL1        0.0962
      2 C          64.7544   92.3664   10.7457 C.ar    1  UNL1        0.0184
      3 C          63.7403   91.4129   10.1868 C.ar    1  UNL1        0.0015
      4 C          63.1264   90.3679   11.0705 C.ar    1  UNL1        0.0023
      5 C          63.5267   90.2763   12.5132 C.ar    1  UNL1        0.0310
      6 C          64.5408   91.2298   13.0721 C.ar    1  UNL1        0.1549
      7 F          64.9411   91.1382   14.5149 F       1  UNL1       -0.2028
      8 C          62.1123   89.4144   10.5116 C.ar    1  UNL1        0.0002
      9 C          61.0716   89.9054    9.5493 C.ar    1  UNL1        0.0023
     10 C          60.0575   88.9519    8.9904 C.ar    1  UNL1        0.0296
     11 C          60.0841   87.5074    9.3937 C.ar    1  UNL1        0.1401
     12 F          59.0699   86.5539    8.8347 F       1  UNL1       -0.2042
     13 C          61.1247   87.0164   10.3560 C.ar    1  UNL1        0.0296
     14 C          62.1388   87.9699   10.9149 C.ar    1  UNL1        0.0023
     15 N          66.1688   93.2283   12.7473 N.pl3   1  UNL1       -0.1876
     16 C          68.2789   92.2369   14.6353 C.3     1  UNL1        0.1999
     17 S          67.2239   92.7326   13.6913 S.O2    1  UNL1        0.0591
     18 O          67.8337   91.9237   12.5850 O.2     1  UNL1       -0.1542
     19 O          66.6141   93.5414   14.7976 O.2     1  UNL1       -0.1542
     20 C          66.1279   94.6774   12.3623 C.3     1  UNL1        0.1434
     21 C          66.3626   95.0817   10.9369 C.ar    1  UNL1        0.0186
     22 C          67.4164   94.3892   10.1247 C.ar    1  UNL1        0.0006
     23 C          67.6510   94.7935    8.6994 C.ar    1  UNL1        0.0204
     24 C          66.8317   95.8903    8.0864 C.ar    1  UNL1        0.0989
     25 N          65.7779   96.5828    8.8986 N.ar    1  UNL1       -0.2426
     26 C          65.5433   96.1785   10.3239 C.ar    1  UNL1        0.0963
@<TRIPOS>BOND
     1    16    17    1
     2    17    18    2
     3    17    19    2
     4    17    15    1
     5    15    20    1
     6    20    21    1
     7    21    22   ar
     8    22    23   ar
     9    23    24   ar
    10    24    25   ar
    11    25    26   ar
    12    15     1    1
    13     1     2   ar
    14     2     3   ar
    15     3     4   ar
    16     4     8    1
    17     8     9   ar
    18     9    10   ar
    19    10    11   ar
    20    11    12    1
    21    11    13   ar
    22    13    14   ar
    23     4     5   ar
    24     5     6   ar
    25     6     7    1
    26    26    21   ar
    27     6     1   ar
    28    14     8   ar
@<TRIPOS>MOLECULE
*****
 26 28 0 0 0
SMALL
GASTEIGER

@<TRIPOS>ATOM
      1 C          62.8010   90.1418   11.7650 C.ar    1  UNL1        0.0962
      2 C          63.1751   89.5356   13.0850 C.ar    1  UNL1        0.0184
      3 C          64.3282   90.0924   13.8661 C.ar    1  UNL1        0.0015
      4 C          65.1073   91.2555   13.3272 C.ar    1  UNL1        0.0023
      5 C          64.7332   91.8617   12.0072 C.ar    1  UNL1        0.0310
      6 C          63.5800   91.3049   11.2261 C.ar    1  UNL1        0.1549
      7 F          63.2059   91.9111    9.9060 F       1  UNL1       -0.2028
      8 C          66.2604   91.8123   14.1084 C.ar    1  UNL1        0.0002
      9 C          66.0404   92.3465   15.4926 C.ar    1  UNL1        0.0023
     10 C          67.1935   92.9033   16.2737 C.ar    1  UNL1        0.0296
     11 C          68.5667   92.9258   15.6706 C.ar    1  UNL1        0.1401
     12 F          69.7199   93.4827   16.4518 F       1  UNL1       -0.2042
     13 C          68.7868   92.3916   14.2864 C.ar    1  UNL1        0.0296
     14 C          67.6337   91.8348   13.5053 C.ar    1  UNL1        0.0023
     15 N          61.6478   89.5850   10.9838 N.pl3   1  UNL1       -0.1876
     16 C          58.8377   90.3416   11.7124 C.3     1  UNL1        0.1999
     17 S          60.2428   89.9633   11.3481 S.O2    1  UNL1        0.0591
     18 O          60.4559   89.4230   12.7311 O.2     1  UNL1       -0.1542
     19 O          60.0296   90.5036    9.9651 O.2     1  UNL1       -0.1542
     20 C          61.8997   88.6499    9.8383 C.3     1  UNL1        0.1434
     21 C          62.2276   87.2103   10.1034 C.ar    1  UNL1        0.0186
     22 C          62.7141   86.3341    8.9874 C.ar    1  UNL1        0.0006
     23 C          63.0419   84.8946    9.2526 C.ar    1  UNL1        0.0204
     24 C          62.8832   84.3313   10.6337 C.ar    1  UNL1        0.0989
     25 N          62.3966   85.2076   11.7497 N.ar    1  UNL1       -0.2426
     26 C          62.0688   86.6471   11.4846 C.ar    1  UNL1        0.0963
@<TRIPOS>BOND
     1    16    17    1
     2    17    18    2
     3    17    19    2
     4    17    15    1
     5    15    20    1
     6    20    21    1
     7    21    22   ar
     8    22    23   ar
     9    23    24   ar
    10    24    25   ar
    11    25    26   ar
    12    15     1    1
    13     1     2   ar
    14     2     3   ar
    15     3     4   ar
    16     4     8    1
    17     8     9   ar
    18     9    10   ar
    19    10    11   ar
    20    11    12    1
    21    11    13   ar
    22    13    14   ar
    23     4     5   ar
    24     5     6   ar
    25     6     7    1
    26    26    21   ar
    27     6     1   ar
    28    14     8   ar
@<TRIPOS>MOLECULE
*****
 26 28 0 0 0
SMALL
GASTEIGER

@<TRIPOS>ATOM
      1 C          62.3271   90.3098   11.8113 C.ar    1  UNL1        0.0962
      2 C          62.5419   89.8759   13.2310 C.ar    1  UNL1        0.0184
      3 C          63.7369   90.3674   13.9927 C.ar    1  UNL1        0.0015
      4 C          64.7172   91.2927   13.3347 C.ar    1  UNL1        0.0023
      5 C          64.5023   91.7266   11.9151 C.ar    1  UNL1        0.0310
      6 C          63.3073   91.2351   11.1533 C.ar    1  UNL1        0.1549
      7 F          63.0924   91.6690    9.7336 F       1  UNL1       -0.2028
      8 C          65.9123   91.7842   14.0965 C.ar    1  UNL1        0.0002
      9 C          67.2610   91.8100   13.4408 C.ar    1  UNL1        0.0023
     10 C          68.4560   92.3014   14.2026 C.ar    1  UNL1        0.0296
     11 C          68.3023   92.7671   15.6201 C.ar    1  UNL1        0.1401
     12 F          69.4974   93.2585   16.3819 F       1  UNL1       -0.2042
     13 C          66.9535   92.7413   16.2759 C.ar    1  UNL1        0.0296
     14 C          65.7585   92.2499   15.5141 C.ar    1  UNL1        0.0023
     15 N          61.1319   89.8183   11.0495 N.pl3   1  UNL1       -0.1876
     16 C          58.6048   89.1230   12.5090 C.3     1  UNL1        0.1999
     17 S          59.8684   89.4707   11.7793 S.O2    1  UNL1        0.0591
     18 O          59.4062   90.8924   11.6563 O.2     1  UNL1       -0.1542
     19 O          60.3306   88.0490   11.9022 O.2     1  UNL1       -0.1542
     20 C          61.2004   89.6745    9.5580 C.3     1  UNL1        0.1434
     21 C          60.8344   88.3708    8.9126 C.ar    1  UNL1        0.0186
     22 C          61.7523   87.1906    9.0329 C.ar    1  UNL1        0.0006
     23 C          61.3863   85.8870    8.3875 C.ar    1  UNL1        0.0204
     24 C          60.1024   85.7636    7.6218 C.ar    1  UNL1        0.0989
     25 N          59.1845   86.9439    7.5014 N.ar    1  UNL1       -0.2426
     26 C          59.5505   88.2475    8.1468 C.ar    1  UNL1        0.0963
@<TRIPOS>BOND
     1    16    17    1
     2    17    18    2
     3    17    19    2
     4    17    15    1
     5    15    20    1
     6    20    21    1
     7    21    22   ar
     8    22    23   ar
     9    23    24   ar
    10    24    25   ar
    11    25    26   ar
    12    15     1    1
    13     1     2   ar
    14     2     3   ar
    15     3     4   ar
    16     4     8    1
    17     8     9   ar
    18     9    10   ar
    19    10    11   ar
    20    11    12    1
    21    11    13   ar
    22    13    14   ar
    23     4     5   ar
    24     5     6   ar
    25     6     7    1
    26    26    21   ar
    27     6     1   ar
    28    14     8   ar
@<TRIPOS>MOLECULE
*****
 26 28 0 0 0
SMALL
GASTEIGER

@<TRIPOS>ATOM
      1 C          62.9857   84.5983   12.1264 C.ar    1  UNL1        0.0962
      2 C          61.9650   85.5997   12.5793 C.ar    1  UNL1        0.0184
      3 C          61.2304   86.4308   11.5696 C.ar    1  UNL1        0.0015
      4 C          61.5165   86.2606   10.1070 C.ar    1  UNL1        0.0023
      5 C          62.5372   85.2591    9.6541 C.ar    1  UNL1        0.0310
      6 C          63.2719   84.4280   10.6638 C.ar    1  UNL1        0.1549
      7 F          64.2927   83.4265   10.2109 F       1  UNL1       -0.2028
      8 C          60.7818   87.0918    9.0973 C.ar    1  UNL1        0.0002
      9 C          60.8142   88.5884    9.1916 C.ar    1  UNL1        0.0023
     10 C          60.0795   89.4195    8.1820 C.ar    1  UNL1        0.0296
     11 C          59.3125   88.7540    7.0780 C.ar    1  UNL1        0.1401
     12 F          58.5778   89.5852    6.0683 F       1  UNL1       -0.2042
     13 C          59.2801   87.2574    6.9837 C.ar    1  UNL1        0.0296
     14 C          60.0148   86.4263    7.9933 C.ar    1  UNL1        0.0023
     15 N          63.7204   83.7671   13.1360 N.pl3   1  UNL1       -0.1876
     16 C          63.3146   80.7957   13.2136 C.3     1  UNL1        0.1999
     17 S          63.5175   82.2814   13.1748 S.O2    1  UNL1        0.0591
     18 O          62.1828   82.4808   13.8296 O.2     1  UNL1       -0.1542
     19 O          64.8522   82.0820   12.5201 O.2     1  UNL1       -0.1542
     20 C          64.6580   84.4216   14.1069 C.3     1  UNL1        0.1434
     21 C          64.1584   85.5019   15.0198 C.ar    1  UNL1        0.0186
     22 C          63.4110   85.1416   16.2695 C.ar    1  UNL1        0.0006
     23 C          62.9115   86.2219   17.1823 C.ar    1  UNL1        0.0204
     24 C          63.1593   87.6625   16.8456 C.ar    1  UNL1        0.0989
     25 N          63.9067   88.0227   15.5960 N.ar    1  UNL1       -0.2426
     26 C          64.4063   86.9424   14.6831 C.ar    1  UNL1        0.0963
@<TRIPOS>BOND
     1    16    17    1
     2    17    18    2
     3    17    19    2
     4    17    15    1
     5    15    20    1
     6    20    21    1
     7    21    22   ar
     8    22    23   ar
     9    23    24   ar
    10    24    25   ar
    11    25    26   ar
    12    15     1    1
    13     1     2   ar
    14     2     3   ar
    15     3     4   ar
    16     4     8    1
    17     8     9   ar
    18     9    10   ar
    19    10    11   ar
    20    11    12    1
    21    11    13   ar
    22    13    14   ar
    23     4     5   ar
    24     5     6   ar
    25     6     7    1
    26    26    21   ar
    27     6     1   ar
    28    14     8   ar
@<TRIPOS>MOLECULE
*****
 26 28 0 0 0
SMALL
GASTEIGER

@<TRIPOS>ATOM
      1 C          62.0228   88.2086   11.3479 C.ar    1  UNL1        0.0962
      2 C          63.0636   87.9196   12.3886 C.ar    1  UNL1        0.0184
      3 C          63.3511   86.5028   12.7886 C.ar    1  UNL1        0.0015
      4 C          62.5978   85.3750   12.1478 C.ar    1  UNL1        0.0023
      5 C          61.5570   85.6640   11.1071 C.ar    1  UNL1        0.0310
      6 C          61.2695   87.0807   10.7072 C.ar    1  UNL1        0.1549
      7 F          60.2286   87.3698    9.6664 F       1  UNL1       -0.2028
      8 C          62.8854   83.9582   12.5478 C.ar    1  UNL1        0.0002
      9 C          63.3080   83.6466   13.9529 C.ar    1  UNL1        0.0023
     10 C          63.5956   82.2298   14.3528 C.ar    1  UNL1        0.0296
     11 C          63.4606   81.1246   13.3477 C.ar    1  UNL1        0.1401
     12 F          63.7482   79.7078   13.7477 F       1  UNL1       -0.2042
     13 C          63.0380   81.4362   11.9426 C.ar    1  UNL1        0.0296
     14 C          62.7504   82.8530   11.5427 C.ar    1  UNL1        0.0023
     15 N          61.7352   89.6254   10.9479 N.pl3   1  UNL1       -0.1876
     16 C          59.0393   90.8214   11.4975 C.3     1  UNL1        0.1999
     17 S          60.3872   90.2234   11.2227 S.O2    1  UNL1        0.0591
     18 O          60.5072   89.8307   12.6654 O.2     1  UNL1       -0.1542
     19 O          60.2673   90.6161    9.7800 O.2     1  UNL1       -0.1542
     20 C          62.7954   90.4442   10.2731 C.3     1  UNL1        0.1434
     21 C          63.7556   91.2521   11.0949 C.ar    1  UNL1        0.0186
     22 C          64.7277   92.1747   10.4212 C.ar    1  UNL1        0.0006
     23 C          65.6878   92.9826   11.2430 C.ar    1  UNL1        0.0204
     24 C          65.6758   92.8680   12.7386 C.ar    1  UNL1        0.0989
     25 N          64.7038   91.9454   13.4123 N.ar    1  UNL1       -0.2426
     26 C          63.7437   91.1375   12.5905 C.ar    1  UNL1        0.0963
@<TRIPOS>BOND
     1    16    17    1
     2    17    18    2
     3    17    19    2
     4    17    15    1
     5    15    20    1
     6    20    21    1
     7    21    22   ar
     8    22    23   ar
     9    23    24   ar
    10    24    25   ar
    11    25    26   ar
    12    15     1    1
    13     1     2   ar
    14     2     3   ar
    15     3     4   ar
    16     4     8    1
    17     8     9   ar
    18     9    10   ar
    19    10    11   ar
    20    11    12    1
    21    11    13   ar
    22    13    14   ar
    23     4     5   ar
    24     5     6   ar
    25     6     7    1
    26    26    21   ar
    27     6     1   ar
    28    14     8   ar
@<TRIPOS>MOLECULE
*****
 26 28 0 0 0
SMALL
GASTEIGER

@<TRIPOS>ATOM
      1 C          62.1138   87.9912   11.2766 C.ar    1  UNL1        0.0962
      2 C          61.3306   86.9570   10.5236 C.ar    1  UNL1        0.0184
      3 C          61.4959   85.5033   10.8542 C.ar    1  UNL1        0.0015
      4 C          62.4445   85.0837   11.9378 C.ar    1  UNL1        0.0023
      5 C          63.2277   86.1179   12.6908 C.ar    1  UNL1        0.0310
      6 C          63.0624   87.5716   12.3602 C.ar    1  UNL1        0.1549
      7 F          63.8456   88.6058   13.1133 F       1  UNL1       -0.2028
      8 C          62.6099   83.6299   12.2683 C.ar    1  UNL1        0.0002
      9 C          62.9542   82.6494   11.1868 C.ar    1  UNL1        0.0023
     10 C          63.1196   81.1956   11.5173 C.ar    1  UNL1        0.0296
     11 C          62.9405   80.7225   12.9294 C.ar    1  UNL1        0.1401
     12 F          63.1058   79.2687   13.2600 F       1  UNL1       -0.2042
     13 C          62.5961   81.7031   14.0110 C.ar    1  UNL1        0.0296
     14 C          62.4308   83.1568   13.6804 C.ar    1  UNL1        0.0023
     15 N          61.9485   89.4450   10.9461 N.pl3   1  UNL1       -0.1876
     16 C          59.3580   90.8343   11.5455 C.3     1  UNL1        0.1999
     17 S          60.6532   90.1397   11.2458 S.O2    1  UNL1        0.0591
     18 O          60.5366   90.5434    9.8059 O.2     1  UNL1       -0.1542
     19 O          60.7699   89.7359   12.6857 O.2     1  UNL1       -0.1542
     20 C          63.0783   90.2041   10.3159 C.3     1  UNL1        0.1434
     21 C          63.9067   91.1409   11.1443 C.ar    1  UNL1        0.0186
     22 C          64.8054   92.1384   10.4756 C.ar    1  UNL1        0.0006
     23 C          65.6337   93.0752   11.3040 C.ar    1  UNL1        0.0204
     24 C          65.5633   93.0145   12.8011 C.ar    1  UNL1        0.0989
     25 N          64.6646   92.0170   13.4698 N.ar    1  UNL1       -0.2426
     26 C          63.8363   91.0802   12.6414 C.ar    1  UNL1        0.0963
@<TRIPOS>BOND
     1    16    17    1
     2    17    18    2
     3    17    19    2
     4    17    15    1
     5    15    20    1
     6    20    21    1
     7    21    22   ar
     8    22    23   ar
     9    23    24   ar
    10    24    25   ar
    11    25    26   ar
    12    15     1    1
    13     1     2   ar
    14     2     3   ar
    15     3     4   ar
    16     4     8    1
    17     8     9   ar
    18     9    10   ar
    19    10    11   ar
    20    11    12    1
    21    11    13   ar
    22    13    14   ar
    23     4     5   ar
    24     5     6   ar
    25     6     7    1
    26    26    21   ar
    27     6     1   ar
    28    14     8   ar
@<TRIPOS>MOLECULE
*****
 26 28 0 0 0
SMALL
GASTEIGER

@<TRIPOS>ATOM
      1 C          62.4318   88.3942   11.5410 C.ar    1  UNL1        0.0962
      2 C          63.1889   88.0268   12.7827 C.ar    1  UNL1        0.0184
      3 C          64.0870   89.0332   13.4388 C.ar    1  UNL1        0.0015
      4 C          64.2280   90.4070   12.8533 C.ar    1  UNL1        0.0023
      5 C          63.4709   90.7744   11.6116 C.ar    1  UNL1        0.0310
      6 C          62.5729   89.7680   10.9555 C.ar    1  UNL1        0.1549
      7 F          61.8157   90.1354    9.7137 F       1  UNL1       -0.2028
      8 C          65.1262   91.4134   13.5095 C.ar    1  UNL1        0.0002
      9 C          65.5095   91.2496   14.9504 C.ar    1  UNL1        0.0023
     10 C          66.4076   92.2560   15.6065 C.ar    1  UNL1        0.0296
     11 C          66.9224   93.4261   14.8218 C.ar    1  UNL1        0.1401
     12 F          67.8205   94.4325   15.4780 F       1  UNL1       -0.2042
     13 C          66.5390   93.5899   13.3809 C.ar    1  UNL1        0.0296
     14 C          65.6409   92.5835   12.7248 C.ar    1  UNL1        0.0023
     15 N          61.5337   87.3878   10.8847 N.pl3   1  UNL1       -0.1876
     16 C          60.1156   88.0812    8.3336 C.3     1  UNL1        0.1999
     17 S          60.8246   87.7345    9.6092 S.O2    1  UNL1        0.0591
     18 O          59.6279   88.1808   10.3957 O.2     1  UNL1       -0.1542
     19 O          62.0214   87.2882    8.8227 O.2     1  UNL1       -0.1542
     20 C          61.3446   86.0348   11.5041 C.3     1  UNL1        0.1434
     21 C          62.4287   85.0034   11.3983 C.ar    1  UNL1        0.0186
     22 C          62.8963   84.5424   10.0498 C.ar    1  UNL1        0.0006
     23 C          63.9803   83.5111    9.9441 C.ar    1  UNL1        0.0204
     24 C          64.5967   82.9407   11.1870 C.ar    1  UNL1        0.0989
     25 N          64.1290   83.4017   12.5356 N.ar    1  UNL1       -0.2426
     26 C          63.0450   84.4331   12.6412 C.ar    1  UNL1        0.0963
@<TRIPOS>BOND
     1    16    17    1
     2    17    18    2
     3    17    19    2
     4    17    15    1
     5    15    20    1
     6    20    21    1
     7    21    22   ar
     8    22    23   ar
     9    23    24   ar
    10    24    25   ar
    11    25    26   ar
    12    15     1    1
    13     1     2   ar
    14     2     3   ar
    15     3     4   ar
    16     4     8    1
    17     8     9   ar
    18     9    10   ar
    19    10    11   ar
    20    11    12    1
    21    11    13   ar
    22    13    14   ar
    23     4     5   ar
    24     5     6   ar
    25     6     7    1
    26    26    21   ar
    27     6     1   ar
    28    14     8   ar
@<TRIPOS>MOLECULE
*****
 26 28 0 0 0
SMALL
GASTEIGER

@<TRIPOS>ATOM
      1 C          63.1575   89.5541   12.2114 C.ar    1  UNL1        0.0962
      2 C          63.5693   90.9194   11.7465 C.ar    1  UNL1        0.0184
      3 C          64.6667   91.6544   12.4575 C.ar    1  UNL1        0.0015
      4 C          65.3523   91.0240   13.6333 C.ar    1  UNL1        0.0023
      5 C          64.9405   89.6587   14.0982 C.ar    1  UNL1        0.0310
      6 C          63.8431   88.9237   13.3873 C.ar    1  UNL1        0.1549
      7 F          63.4312   87.5583   13.8521 F       1  UNL1       -0.2028
      8 C          66.4498   91.7591   14.3442 C.ar    1  UNL1        0.0002
      9 C          66.1795   92.4147   15.6660 C.ar    1  UNL1        0.0023
     10 C          67.2770   93.1496   16.3768 C.ar    1  UNL1        0.0296
     11 C          68.6446   93.2290   15.7659 C.ar    1  UNL1        0.1401
     12 F          69.7421   93.9641   16.4769 F       1  UNL1       -0.2042
     13 C          68.9149   92.5734   14.4442 C.ar    1  UNL1        0.0296
     14 C          67.8174   91.8384   13.7333 C.ar    1  UNL1        0.0023
     15 N          62.0600   88.8190   11.5005 N.pl3   1  UNL1       -0.1876
     16 C          59.6497   90.3093   10.5156 C.3     1  UNL1        0.1999
     17 S          60.8549   89.5641   11.0081 S.O2    1  UNL1        0.0591
     18 O          61.5927   89.9287    9.7540 O.2     1  UNL1       -0.1542
     19 O          60.1170   89.1996   12.2621 O.2     1  UNL1       -0.1542
     20 C          62.1677   87.3390   11.2820 C.3     1  UNL1        0.1434
     21 C          61.7447   86.7413    9.9728 C.ar    1  UNL1        0.0186
     22 C          62.7478   86.0295    9.1144 C.ar    1  UNL1        0.0006
     23 C          62.3248   85.4319    7.8053 C.ar    1  UNL1        0.0204
     24 C          60.8987   85.5461    7.3546 C.ar    1  UNL1        0.0989
     25 N          59.8956   86.2580    8.2130 N.ar    1  UNL1       -0.2426
     26 C          60.3186   86.8556    9.5221 C.ar    1  UNL1        0.0963
@<TRIPOS>BOND
     1    16    17    1
     2    17    18    2
     3    17    19    2
     4    17    15    1
     5    15    20    1
     6    20    21    1
     7    21    22   ar
     8    22    23   ar
     9    23    24   ar
    10    24    25   ar
    11    25    26   ar
    12    15     1    1
    13     1     2   ar
    14     2     3   ar
    15     3     4   ar
    16     4     8    1
    17     8     9   ar
    18     9    10   ar
    19    10    11   ar
    20    11    12    1
    21    11    13   ar
    22    13    14   ar
    23     4     5   ar
    24     5     6   ar
    25     6     7    1
    26    26    21   ar
    27     6     1   ar
    28    14     8   ar
