@<TRIPOS>MOLECULE
*****
 32 33 0 0 0
SMALL
GASTEIGER

@<TRIPOS>ATOM
      1 C          63.2119   90.3671   13.6380 C.ar    1  UNL1        0.1535
      2 C          64.4115   91.2643   13.7159 C.ar    1  UNL1        0.0341
      3 C          64.9385   91.9215   12.4748 C.ar    1  UNL1       -0.0166
      4 C          64.2659   91.6815   11.1557 C.ar    1  UNL1        0.0268
      5 C          63.0664   90.7843   11.0778 C.ar    1  UNL1        0.1556
      6 F          62.3938   90.5443    9.7586 F       1  UNL1       -0.2028
      7 C          62.5394   90.1271   12.3189 C.ar    1  UNL1        0.1037
      8 N          61.3398   89.2299   12.2409 N.pl3   1  UNL1       -0.3529
      9 H          60.8984   89.0724   11.3751 H       1  UNL1        0.1425
     10 H          60.9939   88.7986   13.0554 H       1  UNL1        0.1425
     11 O          62.6850   89.7099   14.8791 O.3     1  UNL1       -0.4665
     12 C          63.4184   88.5488   15.4821 C.3     1  UNL1        0.2891
     13 C          63.2454   88.2260   16.9368 C.3     1  UNL1        0.4366
     14 F          63.0723   87.9032   18.3913 F       1  UNL1       -0.1663
     15 F          63.2212   89.6907   17.2590 F       1  UNL1       -0.1663
     16 F          63.2695   86.7612   16.6146 F       1  UNL1       -0.1663
     17 C          64.3250   87.7103   14.6306 C.3     1  UNL1        0.1945
     18 C          63.7743   85.3544   13.6837 C.3     1  UNL1        0.1743
     19 O          63.7499   86.8479   13.5463 O.3     1  UNL1       -0.3469
     20 C          66.1381   92.8187   12.5528 C.3     1  UNL1        0.0342
     21 C          66.7369   93.3811   11.2978 C.3     1  UNL1        0.0920
     22 C          67.4994   92.4876   10.3648 C.3     1  UNL1        0.2582
     23 S          68.0982   93.0499    9.1098 S.O     1  UNL1        0.0319
     24 O          68.8606   92.1565    8.1768 O.co2   1  UNL1       -0.6812
     25 C          67.9345   94.5058    8.7877 C.3     1  UNL1        0.2733
     26 C          67.1721   95.3993    9.7206 C.3     1  UNL1        0.1382
     27 N          67.0085   96.8552    9.3985 N.3     1  UNL1       -0.3161
     28 C          66.5733   94.8369   10.9757 C.3     1  UNL1        0.1350
     29 O          65.8108   95.7304   11.9086 O.3     1  UNL1       -0.3827
     30 H          66.4675   97.3077   10.1354 H       1  UNL1        0.1190
     31 H          66.5198   96.9537    8.5087 H       1  UNL1        0.1190
     32 H          65.7997   96.6334   11.5546 H       1  UNL1        0.2104
@<TRIPOS>UNITY_ATOM_ATTR
23 1
charge 1
24 1
charge -1
@<TRIPOS>BOND
     1    18    19    1
     2    19    17    1
     3    12    17    1
     4    12    11    1
     5    11     1    1
     6     1     2   ar
     7     2     3   ar
     8     3    20    1
     9    21    20    1
    10    21    22    1
    11    22    23    1
    12    23    24    2
    13    23    25    1
    14    25    26    1
    15    26    27    1
    16    26    28    1
    17    28    29    1
    18     3     4   ar
    19     4     5   ar
    20     5     6    1
    21     5     7   ar
    22     7     8    1
    23    12    13    1
    24    13    14    1
    25    13    15    1
    26    13    16    1
    27     7     1   ar
    28    28    21    1
    29    27    30    1
    30    27    31    1
    31    29    32    1
    32     8     9    1
    33     8    10    1
@<TRIPOS>MOLECULE
*****
 32 33 0 0 0
SMALL
GASTEIGER

@<TRIPOS>ATOM
      1 C          62.4132   84.2570   13.4605 C.ar    1  UNL1        0.1535
      2 C          62.4916   85.1197   12.2360 C.ar    1  UNL1        0.0341
      3 C          62.7174   84.4946   10.8913 C.ar    1  UNL1       -0.0166
      4 C          62.8649   83.0067   10.7711 C.ar    1  UNL1        0.0268
      5 C          62.7865   82.1440   11.9956 C.ar    1  UNL1        0.1556
      6 F          62.9340   80.6560   11.8754 F       1  UNL1       -0.2028
      7 C          62.5607   82.7691   13.3403 C.ar    1  UNL1        0.1037
      8 N          62.4823   81.9063   14.5648 N.pl3   1  UNL1       -0.3529
      9 H          62.5791   80.9297   14.4859 H       1  UNL1        0.1425
     10 H          62.3341   82.3165   15.4474 H       1  UNL1        0.1425
     11 O          62.1874   84.8821   14.8052 O.3     1  UNL1       -0.4665
     12 C          63.3511   85.4037   15.5948 C.3     1  UNL1        0.2891
     13 C          64.7407   85.3012   15.0392 C.3     1  UNL1        0.4366
     14 F          66.1303   85.1987   14.4836 F       1  UNL1       -0.1663
     15 F          64.6561   86.7218   14.5653 F       1  UNL1       -0.1663
     16 F          64.8254   83.8806   15.5131 F       1  UNL1       -0.1663
     17 C          63.1254   86.0278   16.9400 C.3     1  UNL1        0.1945
     18 C          63.1214   88.6230   16.8172 C.3     1  UNL1        0.1743
     19 O          62.3928   87.3323   17.0481 O.3     1  UNL1       -0.3469
     20 C          62.7958   85.3574    9.6667 C.3     1  UNL1        0.0342
     21 C          61.8966   86.5503    9.5310 C.3     1  UNL1        0.0920
     22 C          62.1272   87.7640   10.3819 C.3     1  UNL1        0.2582
     23 S          61.2280   88.9569   10.2461 S.O     1  UNL1        0.0319
     24 O          61.4586   90.1706   11.0969 O.co2   1  UNL1       -0.6812
     25 C          60.0983   88.9362    9.2596 C.3     1  UNL1        0.2733
     26 C          59.8677   87.7225    8.4088 C.3     1  UNL1        0.1382
     27 N          58.7379   87.7018    7.4222 N.3     1  UNL1       -0.3161
     28 C          60.7669   86.5296    8.5445 C.3     1  UNL1        0.1350
     29 O          60.5363   85.3159    7.6936 O.3     1  UNL1       -0.3827
     30 H          58.7293   86.8063    6.9339 H       1  UNL1        0.1190
     31 H          58.8623   88.4561    6.7470 H       1  UNL1        0.1190
     32 H          59.7724   85.4670    7.1152 H       1  UNL1        0.2104
@<TRIPOS>UNITY_ATOM_ATTR
23 1
charge 1
24 1
charge -1
@<TRIPOS>BOND
     1    18    19    1
     2    19    17    1
     3    12    17    1
     4    12    11    1
     5    11     1    1
     6     1     2   ar
     7     2     3   ar
     8     3    20    1
     9    21    20    1
    10    21    22    1
    11    22    23    1
    12    23    24    2
    13    23    25    1
    14    25    26    1
    15    26    27    1
    16    26    28    1
    17    28    29    1
    18     3     4   ar
    19     4     5   ar
    20     5     6    1
    21     5     7   ar
    22     7     8    1
    23    12    13    1
    24    13    14    1
    25    13    15    1
    26    13    16    1
    27     7     1   ar
    28    28    21    1
    29    27    30    1
    30    27    31    1
    31    29    32    1
    32     8     9    1
    33     8    10    1
@<TRIPOS>MOLECULE
*****
 32 33 0 0 0
SMALL
GASTEIGER

@<TRIPOS>ATOM
      1 C          66.0809   92.7138   11.7926 C.ar    1  UNL1        0.1535
      2 C          65.0307   92.3089   10.8011 C.ar    1  UNL1        0.0341
      3 C          63.9219   91.3882   11.2168 C.ar    1  UNL1       -0.0166
      4 C          63.8632   90.8724   12.6241 C.ar    1  UNL1        0.0268
      5 C          64.9133   91.2774   13.6156 C.ar    1  UNL1        0.1556
      6 F          64.8547   90.7616   15.0230 F       1  UNL1       -0.2028
      7 C          66.0222   92.1980   13.1999 C.ar    1  UNL1        0.1037
      8 N          67.0723   92.6029   14.1915 N.pl3   1  UNL1       -0.3529
      9 H          67.0338   92.2644   15.1152 H       1  UNL1        0.1425
     10 H          67.8001   93.2072   13.9187 H       1  UNL1        0.1425
     11 O          67.1897   93.6345   11.3769 O.3     1  UNL1       -0.4665
     12 C          67.3864   93.9648    9.9270 C.3     1  UNL1        0.2891
     13 C          68.2037   93.0579    9.0554 C.3     1  UNL1        0.4366
     14 F          69.0208   92.1511    8.1837 F       1  UNL1       -0.1663
     15 F          68.5663   92.2324   10.2541 F       1  UNL1       -0.1663
     16 F          67.8411   93.8834    7.8566 F       1  UNL1       -0.1663
     17 C          66.7660   95.2020    9.3487 C.3     1  UNL1        0.1945
     18 C          65.7518   96.8374   11.0943 C.3     1  UNL1        0.1743
     19 O          66.8269   96.4956   10.1056 O.3     1  UNL1       -0.3469
     20 C          62.8717   90.9833   10.2252 C.3     1  UNL1        0.0342
     21 C          62.1126   89.7039   10.4170 C.3     1  UNL1        0.0920
     22 C          62.6316   88.4277    9.8237 C.3     1  UNL1        0.2582
     23 S          61.8724   87.1483   10.0155 S.O     1  UNL1        0.0319
     24 O          62.3914   85.8721    9.4222 O.co2   1  UNL1       -0.6812
     25 C          60.5943   87.1451   10.8007 C.3     1  UNL1        0.2733
     26 C          60.0754   88.4213   11.3940 C.3     1  UNL1        0.1382
     27 N          58.7973   88.4181   12.1793 N.3     1  UNL1       -0.3161
     28 C          60.8345   89.7007   11.2022 C.3     1  UNL1        0.1350
     29 O          60.3155   90.9769   11.7955 O.3     1  UNL1       -0.3827
     30 H          58.5965   89.3633   12.5058 H       1  UNL1        0.1190
     31 H          58.8922   87.7944   12.9808 H       1  UNL1        0.1190
     32 H          59.4866   90.8005   12.2673 H       1  UNL1        0.2104
@<TRIPOS>UNITY_ATOM_ATTR
23 1
charge 1
24 1
charge -1
@<TRIPOS>BOND
     1    18    19    1
     2    19    17    1
     3    12    17    1
     4    12    11    1
     5    11     1    1
     6     1     2   ar
     7     2     3   ar
     8     3    20    1
     9    21    20    1
    10    21    22    1
    11    22    23    1
    12    23    24    2
    13    23    25    1
    14    25    26    1
    15    26    27    1
    16    26    28    1
    17    28    29    1
    18     3     4   ar
    19     4     5   ar
    20     5     6    1
    21     5     7   ar
    22     7     8    1
    23    12    13    1
    24    13    14    1
    25    13    15    1
    26    13    16    1
    27     7     1   ar
    28    28    21    1
    29    27    30    1
    30    27    31    1
    31    29    32    1
    32     8     9    1
    33     8    10    1
@<TRIPOS>MOLECULE
*****
 32 33 0 0 0
SMALL
GASTEIGER

@<TRIPOS>ATOM
      1 C          62.3815   84.0785   13.7323 C.ar    1  UNL1        0.1535
      2 C          62.5271   84.9836   12.5450 C.ar    1  UNL1        0.0341
      3 C          62.7482   84.4011   11.1805 C.ar    1  UNL1       -0.0166
      4 C          62.8237   82.9136   11.0032 C.ar    1  UNL1        0.0268
      5 C          62.6781   82.0085   12.1905 C.ar    1  UNL1        0.1556
      6 F          62.7536   80.5209   12.0132 F       1  UNL1       -0.2028
      7 C          62.4570   82.5909   13.5550 C.ar    1  UNL1        0.1037
      8 N          62.3115   81.6858   14.7423 N.pl3   1  UNL1       -0.3529
      9 H          62.3610   80.7094   14.6259 H       1  UNL1        0.1425
     10 H          62.1664   82.0680   15.6378 H       1  UNL1        0.1425
     11 O          62.1605   84.6609   15.0968 O.3     1  UNL1       -0.4665
     12 C          63.2791   85.3718   15.7990 C.3     1  UNL1        0.2891
     13 C          64.6651   85.3393   15.2262 C.3     1  UNL1        0.4366
     14 F          66.0510   85.3068   14.6534 F       1  UNL1       -0.1663
     15 F          64.5362   86.7810   14.8325 F       1  UNL1       -0.1663
     16 F          64.7939   83.8977   15.6199 F       1  UNL1       -0.1663
     17 C          63.0119   86.1152   17.0742 C.3     1  UNL1        0.1945
     18 C          63.0942   88.7060   16.8973 C.3     1  UNL1        0.1743
     19 O          62.3052   87.4379   17.0372 O.3     1  UNL1       -0.3469
     20 C          62.8937   85.3063    9.9933 C.3     1  UNL1        0.0342
     21 C          61.8230   86.3086    9.6786 C.3     1  UNL1        0.0920
     22 C          60.7455   85.9700    8.6915 C.3     1  UNL1        0.2582
     23 S          59.6748   86.9723    8.3768 S.O     1  UNL1        0.0319
     24 O          58.5973   86.6337    7.3897 O.co2   1  UNL1       -0.6812
     25 C          59.6816   88.3131    9.0492 C.3     1  UNL1        0.2733
     26 C          60.7591   88.6517   10.0362 C.3     1  UNL1        0.1382
     27 N          60.7660   89.9926   10.7087 N.3     1  UNL1       -0.3161
     28 C          61.8298   87.6494   10.3509 C.3     1  UNL1        0.1350
     29 O          62.9074   87.9880   11.3380 O.3     1  UNL1       -0.3827
     30 H          61.5627   90.0508   11.3429 H       1  UNL1        0.1190
     31 H          59.9015   90.1125   11.2367 H       1  UNL1        0.1190
     32 H          62.7651   88.8858   11.6767 H       1  UNL1        0.2104
@<TRIPOS>UNITY_ATOM_ATTR
23 1
charge 1
24 1
charge -1
@<TRIPOS>BOND
     1    18    19    1
     2    19    17    1
     3    12    17    1
     4    12    11    1
     5    11     1    1
     6     1     2   ar
     7     2     3   ar
     8     3    20    1
     9    21    20    1
    10    21    22    1
    11    22    23    1
    12    23    24    2
    13    23    25    1
    14    25    26    1
    15    26    27    1
    16    26    28    1
    17    28    29    1
    18     3     4   ar
    19     4     5   ar
    20     5     6    1
    21     5     7   ar
    22     7     8    1
    23    12    13    1
    24    13    14    1
    25    13    15    1
    26    13    16    1
    27     7     1   ar
    28    28    21    1
    29    27    30    1
    30    27    31    1
    31    29    32    1
    32     8     9    1
    33     8    10    1
@<TRIPOS>MOLECULE
*****
 32 33 0 0 0
SMALL
GASTEIGER

@<TRIPOS>ATOM
      1 C          63.2510   90.3326   13.7664 C.ar    1  UNL1        0.1535
      2 C          62.4430   90.0668   12.5309 C.ar    1  UNL1        0.0341
      3 C          62.8798   90.6338   11.2127 C.ar    1  UNL1       -0.0166
      4 C          64.1246   91.4666   11.1300 C.ar    1  UNL1        0.0268
      5 C          64.9326   91.7324   12.3655 C.ar    1  UNL1        0.1556
      6 F          66.1775   92.5652   12.2828 F       1  UNL1       -0.2028
      7 C          64.4958   91.1654   13.6837 C.ar    1  UNL1        0.1037
      8 N          65.3039   91.4312   14.9192 N.pl3   1  UNL1       -0.3529
      9 H          66.1209   91.9778   14.8649 H       1  UNL1        0.1425
     10 H          65.0172   91.0590   15.7844 H       1  UNL1        0.1425
     11 O          62.8142   89.7656   15.0846 O.3     1  UNL1       -0.4665
     12 C          63.4512   88.5136   15.6106 C.3     1  UNL1        0.2891
     13 C          63.1998   88.0812   17.0248 C.3     1  UNL1        0.4366
     14 F          62.9485   87.6489   18.4390 F       1  UNL1       -0.1663
     15 F          63.0996   86.6550   16.5711 F       1  UNL1       -0.1663
     16 F          63.3000   89.5074   17.4786 F       1  UNL1       -0.1663
     17 C          64.3396   87.6939   14.7224 C.3     1  UNL1        0.1945
     18 C          63.9491   85.3056   13.7771 C.3     1  UNL1        0.1743
     19 O          63.7374   86.7880   13.6895 O.3     1  UNL1       -0.3469
     20 C          62.0718   90.3680    9.9772 C.3     1  UNL1        0.0342
     21 C          61.5699   88.9833    9.6928 C.3     1  UNL1        0.0920
     22 C          62.2510   87.7974   10.3091 C.3     1  UNL1        0.2582
     23 S          61.7491   86.4128   10.0247 S.O     1  UNL1        0.0319
     24 O          62.4301   85.2269   10.6410 O.co2   1  UNL1       -0.6812
     25 C          60.5662   86.2140    9.1240 C.3     1  UNL1        0.2733
     26 C          59.8852   87.3999    8.5077 C.3     1  UNL1        0.1382
     27 N          58.7023   87.2012    7.6069 N.3     1  UNL1       -0.3161
     28 C          60.3871   88.7846    8.7921 C.3     1  UNL1        0.1350
     29 O          59.7060   89.9705    8.1757 O.3     1  UNL1       -0.3827
     30 H          58.3679   88.1077    7.2799 H       1  UNL1        0.1190
     31 H          57.9584   86.7298    8.1216 H       1  UNL1        0.1190
     32 H          58.9662   89.6688    7.6257 H       1  UNL1        0.2104
@<TRIPOS>UNITY_ATOM_ATTR
23 1
charge 1
24 1
charge -1
@<TRIPOS>BOND
     1    18    19    1
     2    19    17    1
     3    12    17    1
     4    12    11    1
     5    11     1    1
     6     1     2   ar
     7     2     3   ar
     8     3    20    1
     9    21    20    1
    10    21    22    1
    11    22    23    1
    12    23    24    2
    13    23    25    1
    14    25    26    1
    15    26    27    1
    16    26    28    1
    17    28    29    1
    18     3     4   ar
    19     4     5   ar
    20     5     6    1
    21     5     7   ar
    22     7     8    1
    23    12    13    1
    24    13    14    1
    25    13    15    1
    26    13    16    1
    27     7     1   ar
    28    28    21    1
    29    27    30    1
    30    27    31    1
    31    29    32    1
    32     8     9    1
    33     8    10    1
@<TRIPOS>MOLECULE
*****
 32 33 0 0 0
SMALL
GASTEIGER

@<TRIPOS>ATOM
      1 C          63.0412   88.1968   12.1890 C.ar    1  UNL1        0.1535
      2 C          63.3957   86.8281   12.6900 C.ar    1  UNL1        0.0341
      3 C          64.0867   86.6689   14.0118 C.ar    1  UNL1       -0.0166
      4 C          64.4232   87.8784   14.8326 C.ar    1  UNL1        0.0268
      5 C          64.0687   89.2471   14.3317 C.ar    1  UNL1        0.1556
      6 F          64.4052   90.4567   15.1526 F       1  UNL1       -0.2028
      7 C          63.3777   89.4063   13.0099 C.ar    1  UNL1        0.1037
      8 N          63.0232   90.7751   12.5090 N.pl3   1  UNL1       -0.3529
      9 H          63.2441   91.5689   13.0478 H       1  UNL1        0.1425
     10 H          62.5697   90.8796   11.6414 H       1  UNL1        0.1425
     11 O          62.3502   88.3560   10.8672 O.3     1  UNL1       -0.4665
     12 C          60.9695   87.8034   10.6713 C.3     1  UNL1        0.2891
     13 C          60.7071   86.8111    9.5774 C.3     1  UNL1        0.4366
     14 F          60.4447   85.8189    8.4835 F       1  UNL1       -0.1663
     15 F          60.3655   87.9327    8.6419 F       1  UNL1       -0.1663
     16 F          61.0487   85.6895   10.5129 F       1  UNL1       -0.1663
     17 C          59.8513   88.2430   11.5692 C.3     1  UNL1        0.1945
     18 C          59.3297   90.7879   11.5310 C.3     1  UNL1        0.1743
     19 O          59.9034   89.5898   12.2277 O.3     1  UNL1       -0.3469
     20 C          64.4411   85.3001   14.5127 C.3     1  UNL1        0.0342
     21 C          63.9012   84.0846   13.8192 C.3     1  UNL1        0.0920
     22 C          64.4166   83.7040   12.4628 C.3     1  UNL1        0.2582
     23 S          63.8766   82.4885   11.7693 S.O     1  UNL1        0.0319
     24 O          64.3920   82.1079   10.4130 O.co2   1  UNL1       -0.6812
     25 C          62.8213   81.6536   12.4321 C.3     1  UNL1        0.2733
     26 C          62.3060   82.0342   13.7884 C.3     1  UNL1        0.1382
     27 N          61.2507   81.1992   14.4512 N.3     1  UNL1       -0.3161
     28 C          62.8459   83.2497   14.4819 C.3     1  UNL1        0.1350
     29 O          62.3306   83.6303   15.8383 O.3     1  UNL1       -0.3827
     30 H          61.0206   81.6008   15.3602 H       1  UNL1        0.1190
     31 H          61.5987   80.2488   14.5777 H       1  UNL1        0.1190
     32 H          61.6580   82.9906   16.1198 H       1  UNL1        0.2104
@<TRIPOS>UNITY_ATOM_ATTR
23 1
charge 1
24 1
charge -1
@<TRIPOS>BOND
     1    18    19    1
     2    19    17    1
     3    12    17    1
     4    12    11    1
     5    11     1    1
     6     1     2   ar
     7     2     3   ar
     8     3    20    1
     9    21    20    1
    10    21    22    1
    11    22    23    1
    12    23    24    2
    13    23    25    1
    14    25    26    1
    15    26    27    1
    16    26    28    1
    17    28    29    1
    18     3     4   ar
    19     4     5   ar
    20     5     6    1
    21     5     7   ar
    22     7     8    1
    23    12    13    1
    24    13    14    1
    25    13    15    1
    26    13    16    1
    27     7     1   ar
    28    28    21    1
    29    27    30    1
    30    27    31    1
    31    29    32    1
    32     8     9    1
    33     8    10    1
@<TRIPOS>MOLECULE
*****
 32 33 0 0 0
SMALL
GASTEIGER

@<TRIPOS>ATOM
      1 C          61.0512   86.6497    9.9826 C.ar    1  UNL1        0.1535
      2 C          62.0171   85.8768   10.8308 C.ar    1  UNL1        0.0341
      3 C          62.9250   84.8632   10.1996 C.ar    1  UNL1       -0.0166
      4 C          62.8669   84.6226    8.7202 C.ar    1  UNL1        0.0268
      5 C          61.9010   85.3955    7.8720 C.ar    1  UNL1        0.1556
      6 F          61.8429   85.1549    6.3925 F       1  UNL1       -0.2028
      7 C          60.9932   86.4091    8.5032 C.ar    1  UNL1        0.1037
      8 N          60.0272   87.1821    7.6550 N.pl3   1  UNL1       -0.3529
      9 H          59.9891   87.0242    6.6840 H       1  UNL1        0.1425
     10 H          59.4313   87.8474    8.0692 H       1  UNL1        0.1425
     11 O          60.1433   87.6633   10.6139 O.3     1  UNL1       -0.4665
     12 C          60.6927   88.9839   11.0657 C.3     1  UNL1        0.2891
     13 C          59.7606   90.1180   11.3741 C.3     1  UNL1        0.4366
     14 F          58.8286   91.2521   11.6825 F       1  UNL1       -0.1663
     15 F          59.7518   89.7178   12.8197 F       1  UNL1       -0.1663
     16 F          59.7694   90.5183    9.9286 F       1  UNL1       -0.1663
     17 C          62.1741   89.1704   11.2092 C.3     1  UNL1        0.1945
     18 C          63.2000   90.0877   13.4129 C.3     1  UNL1        0.1743
     19 O          62.8358   88.9284   12.5335 O.3     1  UNL1       -0.3469
     20 C          63.8909   84.0902   11.0479 C.3     1  UNL1        0.0342
     21 C          63.5795   83.8305   12.4920 C.3     1  UNL1        0.0920
     22 C          63.9978   84.8198   13.5392 C.3     1  UNL1        0.2582
     23 S          63.6864   84.5601   14.9833 S.O     1  UNL1        0.0319
     24 O          64.1047   85.5493   16.0304 O.co2   1  UNL1       -0.6812
     25 C          62.9567   83.3110   15.3804 C.3     1  UNL1        0.2733
     26 C          62.5385   82.3218   14.3333 C.3     1  UNL1        0.1382
     27 N          61.8088   81.0728   14.7303 N.3     1  UNL1       -0.3161
     28 C          62.8499   82.5815   12.8891 C.3     1  UNL1        0.1350
     29 O          62.4316   81.5922   11.8420 O.3     1  UNL1       -0.3827
     30 H          61.6039   80.5197   13.8982 H       1  UNL1        0.1190
     31 H          60.9364   81.3222   15.1961 H       1  UNL1        0.1190
     32 H          61.9750   80.8479   12.2644 H       1  UNL1        0.2104
@<TRIPOS>UNITY_ATOM_ATTR
23 1
charge 1
24 1
charge -1
@<TRIPOS>BOND
     1    18    19    1
     2    19    17    1
     3    12    17    1
     4    12    11    1
     5    11     1    1
     6     1     2   ar
     7     2     3   ar
     8     3    20    1
     9    21    20    1
    10    21    22    1
    11    22    23    1
    12    23    24    2
    13    23    25    1
    14    25    26    1
    15    26    27    1
    16    26    28    1
    17    28    29    1
    18     3     4   ar
    19     4     5   ar
    20     5     6    1
    21     5     7   ar
    22     7     8    1
    23    12    13    1
    24    13    14    1
    25    13    15    1
    26    13    16    1
    27     7     1   ar
    28    28    21    1
    29    27    30    1
    30    27    31    1
    31    29    32    1
    32     8     9    1
    33     8    10    1
@<TRIPOS>MOLECULE
*****
 32 33 0 0 0
SMALL
GASTEIGER

@<TRIPOS>ATOM
      1 C          61.6178   88.4442   10.9169 C.ar    1  UNL1        0.1535
      2 C          62.3620   87.2205   11.3626 C.ar    1  UNL1        0.0341
      3 C          62.3319   85.9773   10.5239 C.ar    1  UNL1       -0.0166
      4 C          61.5576   85.9577    9.2394 C.ar    1  UNL1        0.0268
      5 C          60.8133   87.1814    8.7936 C.ar    1  UNL1        0.1556
      6 F          60.0389   87.1619    7.5091 F       1  UNL1       -0.2028
      7 C          60.8434   88.4246    9.6324 C.ar    1  UNL1        0.1037
      8 N          60.0992   89.6483    9.1866 N.pl3   1  UNL1       -0.3529
      9 H          59.5909   89.6355    8.3435 H       1  UNL1        0.1425
     10 H          60.1189   90.4643    9.7370 H       1  UNL1        0.1425
     11 O          61.6479   89.6874   11.7556 O.3     1  UNL1       -0.4665
     12 C          62.9561   90.2200   12.2605 C.3     1  UNL1        0.2891
     13 C          63.7203   91.2242   11.4494 C.3     1  UNL1        0.4366
     14 F          64.4845   92.2282   10.6383 F       1  UNL1       -0.1663
     15 F          62.6387   91.2079   10.4102 F       1  UNL1       -0.1663
     16 F          64.8018   91.2404   12.4885 F       1  UNL1       -0.1663
     17 C          63.5001   89.7486   13.5764 C.3     1  UNL1        0.1945
     18 C          63.2623   89.6187   16.1604 C.3     1  UNL1        0.1743
     19 O          62.6444   89.8094   14.8069 O.3     1  UNL1       -0.3469
     20 C          63.0762   84.7536   10.9697 C.3     1  UNL1        0.0342
     21 C          63.0959   84.3750   12.4210 C.3     1  UNL1        0.0920
     22 C          63.5441   85.3704   13.4498 C.3     1  UNL1        0.2582
     23 S          63.5638   84.9918   14.9011 S.O     1  UNL1        0.0319
     24 O          64.0120   85.9871   15.9298 O.co2   1  UNL1       -0.6812
     25 C          63.1353   83.6178   15.3236 C.3     1  UNL1        0.2733
     26 C          62.6871   82.6224   14.2948 C.3     1  UNL1        0.1382
     27 N          62.2586   81.2484   14.7174 N.3     1  UNL1       -0.3161
     28 C          62.6674   83.0010   12.8435 C.3     1  UNL1        0.1350
     29 O          62.2191   82.0056   11.8148 O.3     1  UNL1       -0.3827
     30 H          61.9882   80.7087   13.8951 H       1  UNL1        0.1190
     31 H          61.4641   81.3204   15.3530 H       1  UNL1        0.1190
     32 H          61.9786   81.1741   12.2526 H       1  UNL1        0.2104
@<TRIPOS>UNITY_ATOM_ATTR
23 1
charge 1
24 1
charge -1
@<TRIPOS>BOND
     1    18    19    1
     2    19    17    1
     3    12    17    1
     4    12    11    1
     5    11     1    1
     6     1     2   ar
     7     2     3   ar
     8     3    20    1
     9    21    20    1
    10    21    22    1
    11    22    23    1
    12    23    24    2
    13    23    25    1
    14    25    26    1
    15    26    27    1
    16    26    28    1
    17    28    29    1
    18     3     4   ar
    19     4     5   ar
    20     5     6    1
    21     5     7   ar
    22     7     8    1
    23    12    13    1
    24    13    14    1
    25    13    15    1
    26    13    16    1
    27     7     1   ar
    28    28    21    1
    29    27    30    1
    30    27    31    1
    31    29    32    1
    32     8     9    1
    33     8    10    1
@<TRIPOS>MOLECULE
*****
 32 33 0 0 0
SMALL
GASTEIGER

@<TRIPOS>ATOM
      1 C          63.1329   88.3725   12.2883 C.ar    1  UNL1        0.1535
      2 C          63.4527   86.9963   12.7921 C.ar    1  UNL1        0.0341
      3 C          64.0982   86.8203   14.1346 C.ar    1  UNL1       -0.0166
      4 C          64.4240   88.0204   14.9733 C.ar    1  UNL1        0.0268
      5 C          64.1042   89.3966   14.4695 C.ar    1  UNL1        0.1556
      6 F          64.4300   90.5968   15.3083 F       1  UNL1       -0.2028
      7 C          63.4587   89.5726   13.1270 C.ar    1  UNL1        0.1037
      8 N          63.1390   90.9489   12.6233 N.pl3   1  UNL1       -0.3529
      9 H          63.3528   91.7366   13.1738 H       1  UNL1        0.1425
     10 H          62.7153   91.0645   11.7422 H       1  UNL1        0.1425
     11 O          62.4874   88.5486   10.9458 O.3     1  UNL1       -0.4665
     12 C          61.0023   88.3952   10.8018 C.3     1  UNL1        0.2891
     13 C          60.0860   89.4812   11.2828 C.3     1  UNL1        0.4366
     14 F          59.1697   90.5670   11.7638 F       1  UNL1       -0.1663
     15 F          60.8373   90.4816   10.4554 F       1  UNL1       -0.1663
     16 F          59.3347   88.4807   12.1102 F       1  UNL1       -0.1663
     17 C          60.4333   87.1560   10.1769 C.3     1  UNL1        0.1945
     18 C          59.6699   88.2046    7.9257 C.3     1  UNL1        0.1743
     19 O          59.4252   87.2683    9.0718 O.3     1  UNL1       -0.3469
     20 C          64.4179   85.4440   14.6383 C.3     1  UNL1        0.0342
     21 C          63.8944   84.2396   13.9135 C.3     1  UNL1        0.0920
     22 C          64.4265   83.8920   12.5547 C.3     1  UNL1        0.2582
     23 S          63.9030   82.6877   11.8298 S.O     1  UNL1        0.0319
     24 O          64.4350   82.3401   10.4711 O.co2   1  UNL1       -0.6812
     25 C          62.8474   81.8309   12.4637 C.3     1  UNL1        0.2733
     26 C          62.3154   82.1785   13.8224 C.3     1  UNL1        0.1382
     27 N          61.2598   81.3217   14.4563 N.3     1  UNL1       -0.3161
     28 C          62.8389   83.3829   14.5473 C.3     1  UNL1        0.1350
     29 O          62.3068   83.7304   15.9060 O.3     1  UNL1       -0.3827
     30 H          61.0174   81.7020   15.3712 H       1  UNL1        0.1190
     31 H          61.6138   80.3714   14.5660 H       1  UNL1        0.1190
     32 H          61.6363   83.0798   16.1669 H       1  UNL1        0.2104
@<TRIPOS>UNITY_ATOM_ATTR
23 1
charge 1
24 1
charge -1
@<TRIPOS>BOND
     1    18    19    1
     2    19    17    1
     3    12    17    1
     4    12    11    1
     5    11     1    1
     6     1     2   ar
     7     2     3   ar
     8     3    20    1
     9    21    20    1
    10    21    22    1
    11    22    23    1
    12    23    24    2
    13    23    25    1
    14    25    26    1
    15    26    27    1
    16    26    28    1
    17    28    29    1
    18     3     4   ar
    19     4     5   ar
    20     5     6    1
    21     5     7   ar
    22     7     8    1
    23    12    13    1
    24    13    14    1
    25    13    15    1
    26    13    16    1
    27     7     1   ar
    28    28    21    1
    29    27    30    1
    30    27    31    1
    31    29    32    1
    32     8     9    1
    33     8    10    1
