@<TRIPOS>MOLECULE
*****
 26 30 0 0 0
SMALL
GASTEIGER

@<TRIPOS>ATOM
      1 O          63.2442   89.6691   12.6386 O.2     1  UNL1       -0.2638
      2 C          62.4459   89.0184   11.5480 C.2     1  UNL1        0.3160
      3 N          61.7676   89.8619   10.5096 N.am    1  UNL1       -0.1720
      4 C          60.9693   89.2112    9.4190 C.ar    1  UNL1        0.0776
      5 C          60.2910   90.0547    8.3806 C.ar    1  UNL1        0.0198
      6 C          59.4928   89.4040    7.2901 C.ar    1  UNL1        0.0359
      7 C          59.3729   87.9097    7.2379 C.ar    1  UNL1        0.0032
      8 C          60.0513   87.0661    8.2763 C.ar    1  UNL1        0.0052
      9 C          60.8495   87.7169    9.3668 C.ar    1  UNL1        0.0623
     10 C          61.5278   86.8733   10.4053 C.2     1  UNL1        0.2419
     11 N          61.5878   85.3886   10.6097 N.2     1  UNL1       -0.0302
     12 C          62.4231   85.1217   11.8267 C.2     1  UNL1        0.3765
     13 N          62.8794   86.4415   12.3743 N.2     1  UNL1       -0.0256
     14 C          62.3261   87.5241   11.4958 C.2     1  UNL1        0.2907
     15 C          62.7455   83.7719   12.3961 C.ar    1  UNL1        0.0989
     16 C          62.2884   83.4124   13.7788 C.ar    1  UNL1        0.0085
     17 C          62.6108   82.0627   14.3481 C.ar    1  UNL1        0.0003
     18 C          63.3904   81.0724   13.5347 C.ar    1  UNL1        0.0009
     19 C          63.8476   81.4318   12.1521 C.ar    1  UNL1        0.0116
     20 C          63.5251   82.7815   11.5828 C.ar    1  UNL1        0.0651
     21 CL         63.9823   83.1410   10.2001 Cl      1  UNL1       -0.0820
     22 C          58.8144   90.2475    6.2516 C.ar    1  UNL1        0.1455
     23 C          59.4980   91.0908    5.2165 C.ar    1  UNL1        0.0407
     24 C          58.4394   91.7603    4.3911 C.ar    1  UNL1        0.0438
     25 C          57.1015   91.3308    4.9162 C.ar    1  UNL1        0.1796
     26 O          57.3333   90.3958    6.0661 O.2     1  UNL1       -0.4504
@<TRIPOS>BOND
     1     1     2    2
     2     2     3    1
     3     3     4    2
     4     4     5   ar
     5     5     6   ar
     6     6    22    1
     7    22    23   ar
     8    23    24   ar
     9    24    25   ar
    10    25    26   ar
    11     6     7   ar
    12     7     8   ar
    13     8     9   ar
    14     9    10    2
    15    10    11    1
    16    11    12    2
    17    12    15    1
    18    15    16   ar
    19    16    17   ar
    20    17    18   ar
    21    18    19   ar
    22    19    20   ar
    23    20    21    1
    24    12    13    1
    25    13    14    2
    26    14     2    1
    27     9     4   ar
    28    14    10    1
    29    26    22   ar
    30    20    15   ar
@<TRIPOS>MOLECULE
*****
 26 30 0 0 0
SMALL
GASTEIGER

@<TRIPOS>ATOM
      1 O          61.2585   89.2634   10.1045 O.2     1  UNL1       -0.2638
      2 C          61.9739   88.3828   11.0857 C.2     1  UNL1        0.3160
      3 N          61.6821   86.9120   11.1249 N.am    1  UNL1       -0.1720
      4 C          62.3975   86.0313   12.1062 C.ar    1  UNL1        0.0776
      5 C          62.1057   84.5605   12.1454 C.ar    1  UNL1        0.0198
      6 C          62.8210   83.6799   13.1266 C.ar    1  UNL1        0.0359
      7 C          63.8282   84.2701   14.0685 C.ar    1  UNL1        0.0032
      8 C          64.1200   85.7409   14.0293 C.ar    1  UNL1        0.0052
      9 C          63.4046   86.6215   13.0481 C.ar    1  UNL1        0.0623
     10 C          63.6964   88.0924   13.0088 C.2     1  UNL1        0.2419
     11 N          64.6307   88.9519   13.8077 N.2     1  UNL1       -0.0302
     12 C          64.4928   90.3638   13.3203 C.2     1  UNL1        0.3765
     13 N          63.4733   90.3768   12.2201 N.2     1  UNL1       -0.0256
     14 C          62.9811   88.9730   12.0276 C.2     1  UNL1        0.2907
     15 C          65.2428   91.5537   13.8415 C.ar    1  UNL1        0.0989
     16 C          65.5333   91.6736   15.3082 C.ar    1  UNL1        0.0085
     17 C          66.2833   92.8635   15.8293 C.ar    1  UNL1        0.0003
     18 C          66.7427   93.9335   14.8838 C.ar    1  UNL1        0.0009
     19 C          66.4522   93.8136   13.4171 C.ar    1  UNL1        0.0116
     20 C          65.7022   92.6237   12.8960 C.ar    1  UNL1        0.0651
     21 CL         65.4117   92.5038   11.4292 Cl      1  UNL1       -0.0820
     22 C          62.5292   82.2091   13.1658 C.ar    1  UNL1        0.1455
     23 C          61.6579   81.5094   14.1665 C.ar    1  UNL1        0.0407
     24 C          61.6477   80.0476   13.8304 C.ar    1  UNL1        0.0438
     25 C          62.5128   79.8437   12.6220 C.ar    1  UNL1        0.1796
     26 O          63.0576   81.1796   12.2113 O.2     1  UNL1       -0.4504
@<TRIPOS>BOND
     1     1     2    2
     2     2     3    1
     3     3     4    2
     4     4     5   ar
     5     5     6   ar
     6     6    22    1
     7    22    23   ar
     8    23    24   ar
     9    24    25   ar
    10    25    26   ar
    11     6     7   ar
    12     7     8   ar
    13     8     9   ar
    14     9    10    2
    15    10    11    1
    16    11    12    2
    17    12    15    1
    18    15    16   ar
    19    16    17   ar
    20    17    18   ar
    21    18    19   ar
    22    19    20   ar
    23    20    21    1
    24    12    13    1
    25    13    14    2
    26    14     2    1
    27     9     4   ar
    28    14    10    1
    29    26    22   ar
    30    20    15   ar
@<TRIPOS>MOLECULE
*****
 26 30 0 0 0
SMALL
GASTEIGER

@<TRIPOS>ATOM
      1 O          61.9171   89.3349   10.5544 O.2     1  UNL1       -0.2638
      2 C          62.4909   88.3800   11.5589 C.2     1  UNL1        0.3160
      3 N          62.0879   86.9354   11.5358 N.am    1  UNL1       -0.1720
      4 C          62.6616   85.9805   12.5404 C.ar    1  UNL1        0.0776
      5 C          62.2586   84.5359   12.5173 C.ar    1  UNL1        0.0198
      6 C          62.8324   83.5810   13.5218 C.ar    1  UNL1        0.0359
      7 C          63.8092   84.0708   14.5493 C.ar    1  UNL1        0.0032
      8 C          64.2122   85.5154   14.5724 C.ar    1  UNL1        0.0052
      9 C          63.6385   86.4703   13.5679 C.ar    1  UNL1        0.0623
     10 C          64.0415   87.9150   13.5910 C.2     1  UNL1        0.2419
     11 N          64.9765   88.6820   14.4783 N.2     1  UNL1       -0.0302
     12 C          64.9806   90.1110   14.0222 C.2     1  UNL1        0.3765
     13 N          64.0481   90.2270   12.8530 N.2     1  UNL1       -0.0256
     14 C          63.4677   88.8698   12.5865 C.2     1  UNL1        0.2907
     15 C          65.7773   91.2279   14.6289 C.ar    1  UNL1        0.0989
     16 C          67.0596   91.6688   13.9876 C.ar    1  UNL1        0.0085
     17 C          67.8562   92.7856   14.5943 C.ar    1  UNL1        0.0003
     18 C          67.3705   93.4615   15.8421 C.ar    1  UNL1        0.0009
     19 C          66.0882   93.0206   16.4834 C.ar    1  UNL1        0.0116
     20 C          65.2916   91.9038   15.8767 C.ar    1  UNL1        0.0651
     21 CL         64.0092   91.4629   16.5180 Cl      1  UNL1       -0.0820
     22 C          62.4293   82.1363   13.4987 C.ar    1  UNL1        0.1455
     23 C          63.0994   81.0464   12.7158 C.ar    1  UNL1        0.0407
     24 C          62.3697   79.7644   12.9877 C.ar    1  UNL1        0.0438
     25 C          61.2485   80.0620   13.9388 C.ar    1  UNL1        0.1796
     26 O          61.2854   81.5279   14.2546 O.2     1  UNL1       -0.4504
@<TRIPOS>BOND
     1     1     2    2
     2     2     3    1
     3     3     4    2
     4     4     5   ar
     5     5     6   ar
     6     6    22    1
     7    22    23   ar
     8    23    24   ar
     9    24    25   ar
    10    25    26   ar
    11     6     7   ar
    12     7     8   ar
    13     8     9   ar
    14     9    10    2
    15    10    11    1
    16    11    12    2
    17    12    15    1
    18    15    16   ar
    19    16    17   ar
    20    17    18   ar
    21    18    19   ar
    22    19    20   ar
    23    20    21    1
    24    12    13    1
    25    13    14    2
    26    14     2    1
    27     9     4   ar
    28    14    10    1
    29    26    22   ar
    30    20    15   ar
@<TRIPOS>MOLECULE
*****
 26 30 0 0 0
SMALL
GASTEIGER

@<TRIPOS>ATOM
      1 O          61.2906   87.2574    9.2342 O.2     1  UNL1       -0.2638
      2 C          62.0487   87.1964   10.5271 C.2     1  UNL1        0.3160
      3 N          62.4488   88.4639   11.2224 N.am    1  UNL1       -0.1720
      4 C          63.2068   88.4030   12.5154 C.ar    1  UNL1        0.0776
      5 C          63.6069   89.6704   13.2107 C.ar    1  UNL1        0.0198
      6 C          64.3649   89.6095   14.5036 C.ar    1  UNL1        0.0359
      7 C          64.7229   88.2810   15.1012 C.ar    1  UNL1        0.0032
      8 C          64.3228   87.0136   14.4059 C.ar    1  UNL1        0.0052
      9 C          63.5648   87.0745   13.1130 C.ar    1  UNL1        0.0623
     10 C          63.1647   85.8070   12.4176 C.2     1  UNL1        0.2419
     11 N          63.3759   84.3629   12.7636 N.2     1  UNL1       -0.0302
     12 C          62.7483   83.5312   11.6844 C.2     1  UNL1        0.3765
     13 N          62.1493   84.4615   10.6716 N.2     1  UNL1       -0.0256
     14 C          62.4067   85.8680   11.1247 C.2     1  UNL1        0.2907
     15 C          62.7240   82.0324   11.6280 C.ar    1  UNL1        0.0989
     16 C          63.0855   81.3238   10.3564 C.ar    1  UNL1        0.0085
     17 C          63.0613   79.8251   10.3001 C.ar    1  UNL1        0.0003
     18 C          62.6754   79.0350   11.5153 C.ar    1  UNL1        0.0009
     19 C          62.3139   79.7437   12.7870 C.ar    1  UNL1        0.0116
     20 C          62.3382   81.2424   12.8433 C.ar    1  UNL1        0.0651
     21 CL         61.9767   81.9511   14.1150 Cl      1  UNL1       -0.0820
     22 C          64.7650   90.8770   15.1989 C.ar    1  UNL1        0.1455
     23 C          66.0474   91.6277   14.9947 C.ar    1  UNL1        0.0407
     24 C          66.0279   92.8309   15.8901 C.ar    1  UNL1        0.0438
     25 C          64.7333   92.8239   16.6478 C.ar    1  UNL1        0.1796
     26 O          63.9528   91.6162   16.2206 O.2     1  UNL1       -0.4504
@<TRIPOS>BOND
     1     1     2    2
     2     2     3    1
     3     3     4    2
     4     4     5   ar
     5     5     6   ar
     6     6    22    1
     7    22    23   ar
     8    23    24   ar
     9    24    25   ar
    10    25    26   ar
    11     6     7   ar
    12     7     8   ar
    13     8     9   ar
    14     9    10    2
    15    10    11    1
    16    11    12    2
    17    12    15    1
    18    15    16   ar
    19    16    17   ar
    20    17    18   ar
    21    18    19   ar
    22    19    20   ar
    23    20    21    1
    24    12    13    1
    25    13    14    2
    26    14     2    1
    27     9     4   ar
    28    14    10    1
    29    26    22   ar
    30    20    15   ar
@<TRIPOS>MOLECULE
*****
 26 30 0 0 0
SMALL
GASTEIGER

@<TRIPOS>ATOM
      1 O          45.1261   72.9468   21.4818 O.2     1  UNL1       -0.2638
      2 C          45.1866   73.2598   20.0160 C.2     1  UNL1        0.3160
      3 N          45.2014   72.1461   19.0113 N.am    1  UNL1       -0.1720
      4 C          45.2619   72.4590   17.5455 C.ar    1  UNL1        0.0776
      5 C          45.2767   71.3453   16.5409 C.ar    1  UNL1        0.0198
      6 C          45.3372   71.6583   15.0752 C.ar    1  UNL1        0.0359
      7 C          45.3829   73.0849   14.6141 C.ar    1  UNL1        0.0032
      8 C          45.3682   74.1986   15.6188 C.ar    1  UNL1        0.0052
      9 C          45.3077   73.8857   17.0845 C.ar    1  UNL1        0.0623
     10 C          45.2929   74.9994   18.0893 C.2     1  UNL1        0.2419
     11 N          45.3287   76.4910   17.9348 N.2     1  UNL1       -0.0302
     12 C          45.2902   77.0999   19.3051 C.2     1  UNL1        0.3765
     13 N          45.2308   75.9846   20.3064 N.2     1  UNL1       -0.0256
     14 C          45.2324   74.6864   19.5550 C.2     1  UNL1        0.2907
     15 C          45.3082   78.5666   19.6190 C.ar    1  UNL1        0.0989
     16 C          44.0888   79.2259   20.1921 C.ar    1  UNL1        0.0085
     17 C          44.1068   80.6925   20.5060 C.ar    1  UNL1        0.0003
     18 C          45.3441   81.4999   20.2467 C.ar    1  UNL1        0.0009
     19 C          46.5634   80.8407   19.6735 C.ar    1  UNL1        0.0116
     20 C          46.5454   79.3740   19.3597 C.ar    1  UNL1        0.0651
     21 CL         47.7648   78.7147   18.7865 Cl      1  UNL1       -0.0820
     22 C          45.3519   70.5445   14.0704 C.ar    1  UNL1        0.1455
     23 C          46.4570   69.5497   13.8731 C.ar    1  UNL1        0.0407
     24 C          46.0522   68.6205   12.7673 C.ar    1  UNL1        0.0438
     25 C          44.6969   69.0411   12.2812 C.ar    1  UNL1        0.1796
     26 O          44.2641   70.2302   13.0866 O.2     1  UNL1       -0.4504
@<TRIPOS>BOND
     1     1     2    2
     2     2     3    1
     3     3     4    2
     4     4     5   ar
     5     5     6   ar
     6     6    22    1
     7    22    23   ar
     8    23    24   ar
     9    24    25   ar
    10    25    26   ar
    11     6     7   ar
    12     7     8   ar
    13     8     9   ar
    14     9    10    2
    15    10    11    1
    16    11    12    2
    17    12    15    1
    18    15    16   ar
    19    16    17   ar
    20    17    18   ar
    21    18    19   ar
    22    19    20   ar
    23    20    21    1
    24    12    13    1
    25    13    14    2
    26    14     2    1
    27     9     4   ar
    28    14    10    1
    29    26    22   ar
    30    20    15   ar
