@<TRIPOS>MOLECULE
*****
 31 35 0 0 0
SMALL
GASTEIGER

@<TRIPOS>ATOM
      1 N          63.6061   88.7775   12.9943 N.3     1  UNL1       -0.2473
      2 C          64.3672   88.6058   14.2753 C.3     1  UNL1        0.0915
      3 C          64.9970   89.7946   14.9387 C.3     1  UNL1        0.0897
      4 N          64.8657   91.1552   14.3210 N.3     1  UNL1       -0.2700
      5 C          64.1046   91.3269   13.0399 C.3     1  UNL1        0.0897
      6 C          63.4748   90.1381   12.3765 C.3     1  UNL1        0.0915
      7 C          59.2086   88.6358    7.1864 C.ar    1  UNL1        0.1402
      8 C          59.0847   87.1418    7.2375 C.ar    1  UNL1        0.0370
      9 C          59.8030   86.3656    8.3013 C.ar    1  UNL1        0.0062
     10 C          60.6451   87.0834    9.3140 C.ar    1  UNL1        0.0368
     11 C          60.7690   88.5773    9.2629 C.ar    1  UNL1        0.0856
     12 C          60.0508   89.3536    8.1991 C.ar    1  UNL1        0.0560
     13 N          61.6641   89.0070   10.3873 N.2     1  UNL1       -0.2447
     14 C          62.0934   87.7785   11.1333 C.2     1  UNL1        0.1142
     15 C          62.9764   87.5888   12.3309 C.3     1  UNL1        0.2066
     16 N          63.2296   86.2102   12.8652 N.2     1  UNL1       -0.2289
     17 C          62.5998   85.0213   12.2019 C.2     1  UNL1        0.1958
     18 N          61.7168   85.2111   11.0042 N.2     1  UNL1       -0.2229
     19 C          61.4636   86.5896   10.4699 C.2     1  UNL1        0.1012
     20 C          59.0777   90.6899    5.6010 C.3     1  UNL1        0.2525
     21 O          58.4904   89.4120    6.1226 O.3     1  UNL1       -0.4714
     22 C          65.4955   92.3440   14.9844 C.3     1  UNL1        0.0769
     23 C          66.7312   92.9619   14.4001 C.3     1  UNL1        0.0437
     24 C          66.8011   93.2528   12.9303 C.ar    1  UNL1       -0.0184
     25 C          66.2703   94.5503   12.3965 C.ar    1  UNL1       -0.0018
     26 C          66.3403   94.8412   10.9266 C.ar    1  UNL1        0.0316
     27 C          66.9409   93.8346    9.9906 C.ar    1  UNL1        0.1674
     28 F          67.0108   94.1257    8.5207 F       1  UNL1       -0.2018
     29 C          67.4717   92.5372   10.5244 C.ar    1  UNL1        0.1671
     30 F          68.0723   91.5307    9.5884 F       1  UNL1       -0.2018
     31 C          67.4017   92.2463   11.9942 C.ar    1  UNL1        0.0277
@<TRIPOS>BOND
     1    20    21    1
     2    21     7    1
     3     7     8   ar
     4     8     9   ar
     5     9    10   ar
     6    10    11   ar
     7    11    12   ar
     8    11    13    1
     9    13    14    2
    10    14    15    1
    11    15     1    1
    12     1     2    1
    13     2     3    1
    14     3     4    1
    15     4    22    1
    16    22    23    1
    17    23    24    1
    18    24    25   ar
    19    25    26   ar
    20    26    27   ar
    21    27    28    1
    22    27    29   ar
    23    29    30    1
    24    29    31   ar
    25     4     5    1
    26     5     6    1
    27    15    16    1
    28    16    17    2
    29    17    18    1
    30    18    19    2
    31    12     7   ar
    32    19    14    1
    33    19    10    1
    34     6     1    1
    35    31    24   ar
@<TRIPOS>MOLECULE
*****
 31 35 0 0 0
SMALL
GASTEIGER

@<TRIPOS>ATOM
      1 N          63.7587   88.1537   14.1565 N.3     1  UNL1       -0.2473
      2 C          63.1693   88.4266   12.8045 C.3     1  UNL1        0.0915
      3 C          63.4436   89.7308   12.1160 C.3     1  UNL1        0.0897
      4 N          64.3072   90.7621   12.7797 N.3     1  UNL1       -0.2700
      5 C          64.8966   90.4892   14.1318 C.3     1  UNL1        0.0897
      6 C          64.6224   89.1851   14.8202 C.3     1  UNL1        0.0915
      7 C          63.1431   81.5195   11.2074 C.ar    1  UNL1        0.1402
      8 C          62.8885   80.8812   12.5406 C.ar    1  UNL1        0.0370
      9 C          62.8617   81.7225   13.7822 C.ar    1  UNL1        0.0062
     10 C          63.0896   83.2022   13.6905 C.ar    1  UNL1        0.0368
     11 C          63.3442   83.8406   12.3572 C.ar    1  UNL1        0.0856
     12 C          63.3710   82.9993   11.1157 C.ar    1  UNL1        0.0560
     13 N          63.5334   85.3125   12.5765 N.2     1  UNL1       -0.2447
     14 C          63.3956   85.5836   14.0454 C.2     1  UNL1        0.1142
     15 C          63.4845   86.8496   14.8449 C.3     1  UNL1        0.2066
     16 N          63.2991   86.8115   16.3330 N.2     1  UNL1       -0.2289
     17 C          63.0248   85.5073   17.0214 C.2     1  UNL1        0.1958
     18 N          62.9359   84.2413   16.2218 N.2     1  UNL1       -0.2229
     19 C          63.1213   84.2795   14.7338 C.2     1  UNL1        0.1012
     20 C          62.8038   79.2253   10.0364 C.3     1  UNL1        0.2525
     21 O          63.1699   80.6782    9.9658 O.3     1  UNL1       -0.4714
     22 C          64.5815   92.0663   12.0912 C.3     1  UNL1        0.0769
     23 C          65.9104   92.7403   12.2633 C.3     1  UNL1        0.0437
     24 C          66.4152   93.6826   11.2112 C.ar    1  UNL1       -0.0184
     25 C          66.2267   95.1616   11.3762 C.ar    1  UNL1       -0.0018
     26 C          66.7316   96.1040   10.3241 C.ar    1  UNL1        0.0316
     27 C          67.4249   95.5674    9.1069 C.ar    1  UNL1        0.1674
     28 F          67.9297   96.5099    8.0548 F       1  UNL1       -0.2018
     29 C          67.6134   94.0885    8.9419 C.ar    1  UNL1        0.1671
     30 F          68.3067   93.5520    7.7248 F       1  UNL1       -0.2018
     31 C          67.1086   93.1462    9.9940 C.ar    1  UNL1        0.0277
@<TRIPOS>BOND
     1    20    21    1
     2    21     7    1
     3     7     8   ar
     4     8     9   ar
     5     9    10   ar
     6    10    11   ar
     7    11    12   ar
     8    11    13    1
     9    13    14    2
    10    14    15    1
    11    15     1    1
    12     1     2    1
    13     2     3    1
    14     3     4    1
    15     4    22    1
    16    22    23    1
    17    23    24    1
    18    24    25   ar
    19    25    26   ar
    20    26    27   ar
    21    27    28    1
    22    27    29   ar
    23    29    30    1
    24    29    31   ar
    25     4     5    1
    26     5     6    1
    27    15    16    1
    28    16    17    2
    29    17    18    1
    30    18    19    2
    31    12     7   ar
    32    19    14    1
    33    19    10    1
    34     6     1    1
    35    31    24   ar
@<TRIPOS>MOLECULE
*****
 31 35 0 0 0
SMALL
GASTEIGER

@<TRIPOS>ATOM
      1 N          63.9332   89.5455   13.1272 N.3     1  UNL1       -0.2473
      2 C          63.0473   89.6413   11.9206 C.3     1  UNL1        0.0915
      3 C          62.3995   88.4073   11.3659 C.3     1  UNL1        0.0897
      4 N          62.6376   87.0775   12.0178 N.3     1  UNL1       -0.2700
      5 C          63.5235   86.9818   13.2245 C.3     1  UNL1        0.0897
      6 C          64.1713   88.2158   13.7792 C.3     1  UNL1        0.0915
      7 C          66.4380   95.3570    9.5160 C.ar    1  UNL1        0.1402
      8 C          66.8771   96.0330   10.7810 C.ar    1  UNL1        0.0370
      9 C          66.6657   95.3586   12.1040 C.ar    1  UNL1        0.0062
     10 C          66.0152   94.0083   12.1621 C.ar    1  UNL1        0.0368
     11 C          65.5761   93.3323   10.8971 C.ar    1  UNL1        0.0856
     12 C          65.7875   94.0067    9.5741 C.ar    1  UNL1        0.0560
     13 N          64.9671   92.0116   11.2646 N.2     1  UNL1       -0.2447
     14 C          65.0299   91.8714   12.7567 C.2     1  UNL1        0.1142
     15 C          64.5809   90.7795   13.6819 C.3     1  UNL1        0.2066
     16 N          64.7796   90.9215   15.1620 N.2     1  UNL1       -0.2289
     17 C          65.4274   92.1555   15.7167 C.2     1  UNL1        0.1958
     18 N          65.8764   93.2475   14.7913 N.2     1  UNL1       -0.2229
     19 C          65.6776   93.1054   13.3114 C.2     1  UNL1        0.1012
     20 C          65.5319   96.8051    7.5584 C.3     1  UNL1        0.2525
     21 O          66.6494   96.0314    8.1929 O.3     1  UNL1       -0.4714
     22 C          61.9899   85.8435   11.4631 C.3     1  UNL1        0.0769
     23 C          62.8331   84.6699   11.0610 C.3     1  UNL1        0.0437
     24 C          62.8065   83.4124   11.8781 C.ar    1  UNL1       -0.0184
     25 C          62.7612   83.4916   13.3754 C.ar    1  UNL1       -0.0018
     26 C          62.7347   82.2339   14.1925 C.ar    1  UNL1        0.0316
     27 C          62.7534   80.8970   13.5122 C.ar    1  UNL1        0.1674
     28 F          62.7268   79.6394   14.3294 F       1  UNL1       -0.2018
     29 C          62.7987   80.8179   12.0150 C.ar    1  UNL1        0.1671
     30 F          62.8174   79.4811   11.3349 F       1  UNL1       -0.2018
     31 C          62.8253   82.0755   11.1980 C.ar    1  UNL1        0.0277
@<TRIPOS>BOND
     1    20    21    1
     2    21     7    1
     3     7     8   ar
     4     8     9   ar
     5     9    10   ar
     6    10    11   ar
     7    11    12   ar
     8    11    13    1
     9    13    14    2
    10    14    15    1
    11    15     1    1
    12     1     2    1
    13     2     3    1
    14     3     4    1
    15     4    22    1
    16    22    23    1
    17    23    24    1
    18    24    25   ar
    19    25    26   ar
    20    26    27   ar
    21    27    28    1
    22    27    29   ar
    23    29    30    1
    24    29    31   ar
    25     4     5    1
    26     5     6    1
    27    15    16    1
    28    16    17    2
    29    17    18    1
    30    18    19    2
    31    12     7   ar
    32    19    14    1
    33    19    10    1
    34     6     1    1
    35    31    24   ar
@<TRIPOS>MOLECULE
*****
 31 35 0 0 0
SMALL
GASTEIGER

@<TRIPOS>ATOM
      1 N          59.5344   89.2447    7.0569 N.3     1  UNL1       -0.2473
      2 C          60.2235   89.7344    8.2960 C.3     1  UNL1        0.0915
      3 C          60.7584   88.7516    9.2949 C.3     1  UNL1        0.0897
      4 N          60.6042   87.2790    9.0548 N.3     1  UNL1       -0.2700
      5 C          59.9152   86.7892    7.8158 C.3     1  UNL1        0.0897
      6 C          59.3803   87.7721    6.8168 C.3     1  UNL1        0.0915
      7 C          63.1858   92.9723    1.9715 C.ar    1  UNL1        0.1402
      8 C          61.9399   93.6499    1.4831 C.ar    1  UNL1        0.0370
      9 C          60.6199   93.3482    2.1286 C.ar    1  UNL1        0.0062
     10 C          60.5458   92.3690    3.2624 C.ar    1  UNL1        0.0368
     11 C          61.7917   91.6914    3.7508 C.ar    1  UNL1        0.0856
     12 C          63.1117   91.9931    3.1054 C.ar    1  UNL1        0.0560
     13 N          61.4113   90.7787    4.8788 N.2     1  UNL1       -0.2447
     14 C          59.9303   90.8921    5.0874 C.2     1  UNL1        0.1142
     15 C          58.9996   90.2275    6.0580 C.3     1  UNL1        0.2066
     16 N          57.5339   90.5456    6.0297 N.2     1  UNL1       -0.2289
     17 C          56.9990   91.5285    5.0307 C.2     1  UNL1        0.1958
     18 N          57.9298   92.1932    4.0601 N.2     1  UNL1       -0.2229
     19 C          59.3954   91.8750    4.0885 C.2     1  UNL1        0.1012
     20 C          64.5898   94.2986    0.2338 C.3     1  UNL1        0.2525
     21 O          64.5058   93.2740    1.3261 O.3     1  UNL1       -0.4714
     22 C          61.1391   86.2961   10.0538 C.3     1  UNL1        0.0769
     23 C          62.4779   85.6563    9.8337 C.3     1  UNL1        0.0437
     24 C          62.9202   84.5222   10.7099 C.ar    1  UNL1       -0.0184
     25 C          63.8001   83.4427   10.1524 C.ar    1  UNL1       -0.0018
     26 C          64.2424   82.3085   11.0286 C.ar    1  UNL1        0.0316
     27 C          63.8049   82.2536   12.4624 C.ar    1  UNL1        0.1674
     28 F          64.2474   81.1194   13.3386 F       1  UNL1       -0.2018
     29 C          62.9251   83.3331   13.0199 C.ar    1  UNL1        0.1671
     30 F          62.4877   83.2782   14.4536 F       1  UNL1       -0.2018
     31 C          62.4828   84.4672   12.1437 C.ar    1  UNL1        0.0277
@<TRIPOS>BOND
     1    20    21    1
     2    21     7    1
     3     7     8   ar
     4     8     9   ar
     5     9    10   ar
     6    10    11   ar
     7    11    12   ar
     8    11    13    1
     9    13    14    2
    10    14    15    1
    11    15     1    1
    12     1     2    1
    13     2     3    1
    14     3     4    1
    15     4    22    1
    16    22    23    1
    17    23    24    1
    18    24    25   ar
    19    25    26   ar
    20    26    27   ar
    21    27    28    1
    22    27    29   ar
    23    29    30    1
    24    29    31   ar
    25     4     5    1
    26     5     6    1
    27    15    16    1
    28    16    17    2
    29    17    18    1
    30    18    19    2
    31    12     7   ar
    32    19    14    1
    33    19    10    1
    34     6     1    1
    35    31    24   ar
@<TRIPOS>MOLECULE
*****
 31 35 0 0 0
SMALL
GASTEIGER

@<TRIPOS>ATOM
      1 N          63.6718   88.0467   13.8869 N.3     1  UNL1       -0.2473
      2 C          63.1036   88.2251   12.5102 C.3     1  UNL1        0.0915
      3 C          63.2875   89.5255   11.7855 C.3     1  UNL1        0.0897
      4 N          64.0396   90.6476   12.4376 N.3     1  UNL1       -0.2700
      5 C          64.6079   90.4692   13.8143 C.3     1  UNL1        0.0897
      6 C          64.4240   89.1688   14.5389 C.3     1  UNL1        0.0915
      7 C          63.1291   81.3416   11.0875 C.ar    1  UNL1        0.1402
      8 C          62.9784   80.7190   12.4438 C.ar    1  UNL1        0.0370
      9 C          62.9944   81.5814   13.6710 C.ar    1  UNL1        0.0062
     10 C          63.1611   83.0665   13.5419 C.ar    1  UNL1        0.0368
     11 C          63.3118   83.6892   12.1856 C.ar    1  UNL1        0.0856
     12 C          63.2958   82.8267   10.9584 C.ar    1  UNL1        0.0560
     13 N          63.4587   85.1707   12.3694 N.2     1  UNL1       -0.2447
     14 C          63.3988   85.4636   13.8392 C.2     1  UNL1        0.1142
     15 C          63.4879   86.7464   14.6115 C.3     1  UNL1        0.2066
     16 N          63.3931   86.7289   16.1084 N.2     1  UNL1       -0.2289
     17 C          63.2092   85.4284   16.8331 C.2     1  UNL1        0.1958
     18 N          63.1201   84.1455   16.0608 N.2     1  UNL1       -0.2229
     19 C          63.2148   84.1631   14.5639 C.2     1  UNL1        0.1012
     20 C          62.7928   79.0183    9.9745 C.3     1  UNL1        0.2525
     21 O          63.1131   80.4792    9.8604 O.3     1  UNL1       -0.4714
     22 C          64.2236   91.9480   11.7129 C.3     1  UNL1        0.0769
     23 C          65.6005   92.5109   11.5199 C.3     1  UNL1        0.0437
     24 C          66.5990   92.4500   12.6375 C.ar    1  UNL1       -0.0184
     25 C          67.9555   91.8553   12.3998 C.ar    1  UNL1       -0.0018
     26 C          68.9541   91.7945   13.5174 C.ar    1  UNL1        0.0316
     27 C          68.5962   92.3284   14.8728 C.ar    1  UNL1        0.1674
     28 F          69.5948   92.2675   15.9904 F       1  UNL1       -0.2018
     29 C          67.2398   92.9231   15.1105 C.ar    1  UNL1        0.1671
     30 F          66.8819   93.4569   16.4658 F       1  UNL1       -0.2018
     31 C          66.2412   92.9839   13.9929 C.ar    1  UNL1        0.0277
@<TRIPOS>BOND
     1    20    21    1
     2    21     7    1
     3     7     8   ar
     4     8     9   ar
     5     9    10   ar
     6    10    11   ar
     7    11    12   ar
     8    11    13    1
     9    13    14    2
    10    14    15    1
    11    15     1    1
    12     1     2    1
    13     2     3    1
    14     3     4    1
    15     4    22    1
    16    22    23    1
    17    23    24    1
    18    24    25   ar
    19    25    26   ar
    20    26    27   ar
    21    27    28    1
    22    27    29   ar
    23    29    30    1
    24    29    31   ar
    25     4     5    1
    26     5     6    1
    27    15    16    1
    28    16    17    2
    29    17    18    1
    30    18    19    2
    31    12     7   ar
    32    19    14    1
    33    19    10    1
    34     6     1    1
    35    31    24   ar
@<TRIPOS>MOLECULE
*****
 31 35 0 0 0
SMALL
GASTEIGER

@<TRIPOS>ATOM
      1 N          64.3299   89.3350   13.9325 N.3     1  UNL1       -0.2473
      2 C          64.6650   88.1530   14.7930 C.3     1  UNL1        0.0915
      3 C          64.1932   86.7836   14.4030 C.3     1  UNL1        0.0897
      4 N          63.3862   86.5962   13.1525 N.3     1  UNL1       -0.2700
      5 C          63.0511   87.7782   12.2920 C.3     1  UNL1        0.0897
      6 C          63.5230   89.1477   12.6820 C.3     1  UNL1        0.0915
      7 C          66.5195   94.7721    9.6043 C.ar    1  UNL1        0.1402
      8 C          66.7830   95.6785   10.7700 C.ar    1  UNL1        0.0370
      9 C          66.5336   95.1946   12.1677 C.ar    1  UNL1        0.0062
     10 C          66.0208   93.8043   12.3998 C.ar    1  UNL1        0.0368
     11 C          65.7573   92.8978   11.2341 C.ar    1  UNL1        0.0856
     12 C          66.0067   93.3817    9.8363 C.ar    1  UNL1        0.0560
     13 N          65.2573   91.5885   11.7687 N.2     1  UNL1       -0.2447
     14 C          65.2118   91.6858   13.2648 C.2     1  UNL1        0.1142
     15 C          64.8017   90.7044   14.3225 C.3     1  UNL1        0.2066
     16 N          64.8634   91.0923   15.7702 N.2     1  UNL1       -0.2289
     17 C          65.3353   92.4618   16.1602 C.2     1  UNL1        0.1958
     18 N          65.7454   93.4432   15.1025 N.2     1  UNL1       -0.2229
     19 C          65.6837   93.0552   13.6548 C.2     1  UNL1        0.1012
     20 C          67.1486   96.6868    7.9648 C.3     1  UNL1        0.2525
     21 O          66.7689   95.2560    8.2066 O.3     1  UNL1       -0.4714
     22 C          62.9144   85.2268   12.7626 C.3     1  UNL1        0.0769
     23 C          63.2776   84.6620   11.4212 C.3     1  UNL1        0.0437
     24 C          62.5295   85.0979   10.1964 C.ar    1  UNL1       -0.0184
     25 C          63.0317   84.7163    8.8354 C.ar    1  UNL1       -0.0018
     26 C          62.2836   85.1522    7.6105 C.ar    1  UNL1        0.0316
     27 C          61.0332   85.9697    7.7467 C.ar    1  UNL1        0.1674
     28 F          60.2852   86.4055    6.5217 F       1  UNL1       -0.2018
     29 C          60.5311   86.3513    9.1076 C.ar    1  UNL1        0.1671
     30 F          59.2809   87.1688    9.2437 F       1  UNL1       -0.2018
     31 C          61.2792   85.9154   10.3324 C.ar    1  UNL1        0.0277
@<TRIPOS>BOND
     1    20    21    1
     2    21     7    1
     3     7     8   ar
     4     8     9   ar
     5     9    10   ar
     6    10    11   ar
     7    11    12   ar
     8    11    13    1
     9    13    14    2
    10    14    15    1
    11    15     1    1
    12     1     2    1
    13     2     3    1
    14     3     4    1
    15     4    22    1
    16    22    23    1
    17    23    24    1
    18    24    25   ar
    19    25    26   ar
    20    26    27   ar
    21    27    28    1
    22    27    29   ar
    23    29    30    1
    24    29    31   ar
    25     4     5    1
    26     5     6    1
    27    15    16    1
    28    16    17    2
    29    17    18    1
    30    18    19    2
    31    12     7   ar
    32    19    14    1
    33    19    10    1
    34     6     1    1
    35    31    24   ar
@<TRIPOS>MOLECULE
*****
 31 35 0 0 0
SMALL
GASTEIGER

@<TRIPOS>ATOM
      1 N          72.4767   76.4995   14.4365 N.3     1  UNL1       -0.2473
      2 C          72.8051   77.8091   15.0900 C.3     1  UNL1        0.0915
      3 C          72.6339   79.0907   14.3294 C.3     1  UNL1        0.0897
      4 N          72.1345   79.0626   12.9153 N.3     1  UNL1       -0.2700
      5 C          71.8062   77.7530   12.2618 C.3     1  UNL1        0.0897
      6 C          71.9773   76.4714   13.0224 C.3     1  UNL1        0.0915
      7 C          69.9358   69.8757   12.7759 C.ar    1  UNL1        0.1402
      8 C          70.5464   69.2646   14.0021 C.ar    1  UNL1        0.0370
      9 C          71.3274   70.1188   14.9563 C.ar    1  UNL1        0.0062
     10 C          71.4978   71.5840   14.6843 C.ar    1  UNL1        0.0368
     11 C          70.8872   72.1950   13.4581 C.ar    1  UNL1        0.0856
     12 C          70.1062   71.3409   12.5039 C.ar    1  UNL1        0.0560
     13 N          71.2209   73.6575   13.4536 N.2     1  UNL1       -0.2447
     14 C          72.0378   73.9502   14.6772 C.2     1  UNL1        0.1142
     15 C          72.6478   75.2181   15.1970 C.3     1  UNL1        0.2066
     16 N          73.4291   75.2045   16.4775 N.2     1  UNL1       -0.2289
     17 C          73.6002   73.9230   17.2381 C.2     1  UNL1        0.1958
     18 N          72.9901   72.6551   16.7182 N.2     1  UNL1       -0.2229
     19 C          72.2089   72.6687   15.4377 C.2     1  UNL1        0.1012
     20 C          67.6831   69.2497   11.6431 C.3     1  UNL1        0.2525
     21 O          69.1548   69.0215   11.8217 O.3     1  UNL1       -0.4714
     22 C          71.9634   80.3441   12.1547 C.3     1  UNL1        0.0769
     23 C          72.9616   80.7320   11.1045 C.3     1  UNL1        0.0437
     24 C          72.5171   80.9376    9.6868 C.ar    1  UNL1       -0.0184
     25 C          72.2153   82.3200    9.1885 C.ar    1  UNL1       -0.0018
     26 C          71.7707   82.5256    7.7707 C.ar    1  UNL1        0.0316
     27 C          71.6279   81.3490    6.8512 C.ar    1  UNL1        0.1674
     28 F          71.1833   81.5548    5.4335 F       1  UNL1       -0.2018
     29 C          71.9297   79.9668    7.3496 C.ar    1  UNL1        0.1671
     30 F          71.7869   78.7903    6.4302 F       1  UNL1       -0.2018
     31 C          72.3742   79.7611    8.7673 C.ar    1  UNL1        0.0277
@<TRIPOS>BOND
     1    20    21    1
     2    21     7    1
     3     7     8   ar
     4     8     9   ar
     5     9    10   ar
     6    10    11   ar
     7    11    12   ar
     8    11    13    1
     9    13    14    2
    10    14    15    1
    11    15     1    1
    12     1     2    1
    13     2     3    1
    14     3     4    1
    15     4    22    1
    16    22    23    1
    17    23    24    1
    18    24    25   ar
    19    25    26   ar
    20    26    27   ar
    21    27    28    1
    22    27    29   ar
    23    29    30    1
    24    29    31   ar
    25     4     5    1
    26     5     6    1
    27    15    16    1
    28    16    17    2
    29    17    18    1
    30    18    19    2
    31    12     7   ar
    32    19    14    1
    33    19    10    1
    34     6     1    1
    35    31    24   ar
@<TRIPOS>MOLECULE
*****
 31 35 0 0 0
SMALL
GASTEIGER

@<TRIPOS>ATOM
      1 N          63.2027   88.6177   13.0660 N.3     1  UNL1       -0.2473
      2 C          63.0290   90.0928   12.8562 C.3     1  UNL1        0.0915
      3 C          63.3291   91.0495   13.9719 C.3     1  UNL1        0.0897
      4 N          63.8028   90.5311   15.2974 N.3     1  UNL1       -0.2700
      5 C          63.9764   89.0561   15.5072 C.3     1  UNL1        0.0897
      6 C          63.6764   88.0994   14.3915 C.3     1  UNL1        0.0915
      7 C          63.2336   81.3331   13.2176 C.ar    1  UNL1        0.1402
      8 C          62.8462   81.2383   11.7717 C.ar    1  UNL1        0.0370
      9 C          62.6329   82.4873   10.9689 C.ar    1  UNL1        0.0062
     10 C          62.8069   83.8311   11.6120 C.ar    1  UNL1        0.0368
     11 C          63.1943   83.9260   13.0580 C.ar    1  UNL1        0.0856
     12 C          63.4076   82.6770   13.8608 C.ar    1  UNL1        0.0560
     13 N          63.2924   85.3791   13.4172 N.2     1  UNL1       -0.2447
     14 C          62.9657   86.1822   12.1932 C.2     1  UNL1        0.1142
     15 C          62.9026   87.6611   11.9504 C.3     1  UNL1        0.2066
     16 N          62.5395   88.1833   10.5919 N.2     1  UNL1       -0.2289
     17 C          62.2394   87.2266    9.4762 C.2     1  UNL1        0.1958
     18 N          62.3025   85.7477    9.7191 N.2     1  UNL1       -0.2229
     19 C          62.6656   85.2255   11.0776 C.2     1  UNL1        0.1012
     20 C          62.3739   79.0377   14.0789 C.3     1  UNL1        0.2525
     21 O          63.4470   80.0841   14.0205 O.3     1  UNL1       -0.4714
     22 C          64.1029   91.4878   16.4131 C.3     1  UNL1        0.0769
     23 C          64.9485   92.6995   16.1550 C.3     1  UNL1        0.0437
     24 C          66.3172   92.5462   15.5607 C.ar    1  UNL1       -0.0184
     25 C          67.5320   92.6864   16.4295 C.ar    1  UNL1       -0.0018
     26 C          68.9007   92.5330   15.8352 C.ar    1  UNL1        0.0316
     27 C          69.0546   92.2395   14.3722 C.ar    1  UNL1        0.1674
     28 F          70.4233   92.0861   13.7781 F       1  UNL1       -0.2018
     29 C          67.8398   92.0993   13.5036 C.ar    1  UNL1        0.1671
     30 F          67.9937   91.8058   12.0407 F       1  UNL1       -0.2018
     31 C          66.4712   92.2527   14.0978 C.ar    1  UNL1        0.0277
@<TRIPOS>BOND
     1    20    21    1
     2    21     7    1
     3     7     8   ar
     4     8     9   ar
     5     9    10   ar
     6    10    11   ar
     7    11    12   ar
     8    11    13    1
     9    13    14    2
    10    14    15    1
    11    15     1    1
    12     1     2    1
    13     2     3    1
    14     3     4    1
    15     4    22    1
    16    22    23    1
    17    23    24    1
    18    24    25   ar
    19    25    26   ar
    20    26    27   ar
    21    27    28    1
    22    27    29   ar
    23    29    30    1
    24    29    31   ar
    25     4     5    1
    26     5     6    1
    27    15    16    1
    28    16    17    2
    29    17    18    1
    30    18    19    2
    31    12     7   ar
    32    19    14    1
    33    19    10    1
    34     6     1    1
    35    31    24   ar
@<TRIPOS>MOLECULE
*****
 31 35 0 0 0
SMALL
GASTEIGER

@<TRIPOS>ATOM
      1 N          61.0979   92.5713    2.8015 N.3     1  UNL1       -0.2473
      2 C          59.6708   92.8911    3.1345 C.3     1  UNL1        0.0915
      3 C          59.0021   92.2162    4.2953 C.3     1  UNL1        0.0897
      4 N          59.7606   91.2215    5.1231 N.3     1  UNL1       -0.2700
      5 C          61.1878   90.9016    4.7900 C.3     1  UNL1        0.0897
      6 C          61.8564   91.5765    3.6292 C.3     1  UNL1        0.0915
      7 C          58.6137   93.3998   -3.9979 C.ar    1  UNL1        0.1402
      8 C          59.8499   94.1324   -4.4279 C.ar    1  UNL1        0.0370
      9 C          60.9565   94.3776   -3.4453 C.ar    1  UNL1        0.0062
     10 C          60.8268   93.8902   -2.0327 C.ar    1  UNL1        0.0368
     11 C          59.5905   93.1576   -1.6027 C.ar    1  UNL1        0.0856
     12 C          58.4840   92.9124   -2.5852 C.ar    1  UNL1        0.0560
     13 N          59.7448   92.7982   -0.1545 N.2     1  UNL1       -0.2447
     14 C          61.0765   93.3086    0.3104 C.2     1  UNL1        0.1142
     15 C          61.7666   93.2461    1.6407 C.3     1  UNL1        0.2066
     16 N          63.1254   93.8585    1.8104 N.2     1  UNL1       -0.2289
     17 C          63.7940   94.5334    0.6496 C.2     1  UNL1        0.1958
     18 N          63.1039   94.5959   -0.6808 N.2     1  UNL1       -0.2229
     19 C          61.7451   93.9836   -0.8504 C.2     1  UNL1        0.1012
     20 C          56.6075   91.9658   -4.8156 C.3     1  UNL1        0.2525
     21 O          57.5072   93.1546   -4.9805 O.3     1  UNL1       -0.4714
     22 C          59.0920   90.5466    6.2839 C.3     1  UNL1        0.0769
     23 C          59.1253   89.0517    6.4031 C.3     1  UNL1        0.0437
     24 C          59.6821   88.4102    7.6393 C.ar    1  UNL1       -0.0184
     25 C          59.8240   86.9186    7.7114 C.ar    1  UNL1       -0.0018
     26 C          60.3809   86.2770    8.9477 C.ar    1  UNL1        0.0316
     27 C          60.7958   87.1271   10.1119 C.ar    1  UNL1        0.1674
     28 F          61.3526   86.4855   11.3482 F       1  UNL1       -0.2018
     29 C          60.6538   88.6186   10.0398 C.ar    1  UNL1        0.1671
     30 F          61.0687   89.4686   11.2040 F       1  UNL1       -0.2018
     31 C          60.0970   89.2601    8.8036 C.ar    1  UNL1        0.0277
@<TRIPOS>BOND
     1    20    21    1
     2    21     7    1
     3     7     8   ar
     4     8     9   ar
     5     9    10   ar
     6    10    11   ar
     7    11    12   ar
     8    11    13    1
     9    13    14    2
    10    14    15    1
    11    15     1    1
    12     1     2    1
    13     2     3    1
    14     3     4    1
    15     4    22    1
    16    22    23    1
    17    23    24    1
    18    24    25   ar
    19    25    26   ar
    20    26    27   ar
    21    27    28    1
    22    27    29   ar
    23    29    30    1
    24    29    31   ar
    25     4     5    1
    26     5     6    1
    27    15    16    1
    28    16    17    2
    29    17    18    1
    30    18    19    2
    31    12     7   ar
    32    19    14    1
    33    19    10    1
    34     6     1    1
    35    31    24   ar
