@<TRIPOS>MOLECULE
*****
 27 30 0 0 0
SMALL
GASTEIGER

@<TRIPOS>ATOM
      1 C          62.8385   87.7957   12.2831 C.ar    1  UNL1        0.0456
      2 C          63.6097   87.7998   13.5697 C.ar    1  UNL1        0.1327
      3 N          64.0660   86.5054   14.1747 N.ar    1  UNL1       -0.2298
      4 C          63.7511   85.2067   13.4932 C.ar    1  UNL1        0.0932
      5 C          64.2074   83.9122   14.0983 C.ar    1  UNL1        0.0761
      6 CL         64.9786   83.9164   15.3849 Cl      1  UNL1       -0.0806
      7 C          63.8925   82.6137   13.4168 C.ar    1  UNL1        0.0243
      8 C          63.1214   82.6095   12.1302 C.ar    1  UNL1        0.0586
      9 CL         62.8065   81.3109   11.4487 Cl      1  UNL1       -0.0822
     10 C          62.6651   83.9040   11.5251 C.ar    1  UNL1        0.0129
     11 C          62.9800   85.2026   12.2066 C.ar    1  UNL1        0.0195
     12 C          62.5237   86.4971   11.6016 C.ar    1  UNL1        0.0053
     13 N          63.9245   89.0985   14.2512 N.pl3   1  UNL1       -0.2932
     14 C          64.8050   90.1066   13.5741 C.3     1  UNL1        0.0922
     15 C          65.1198   91.4052   14.2557 C.3     1  UNL1        0.0215
     16 C          64.5542   91.6957   15.6142 C.3     1  UNL1        0.0035
     17 C          63.6737   90.6876   16.2912 C.3     1  UNL1        0.0215
     18 C          63.3589   89.3890   15.6097 C.3     1  UNL1        0.0922
     19 C          61.7525   86.4930   10.3150 C.ar    1  UNL1        0.0002
     20 C          62.3591   85.8977    9.0789 C.ar    1  UNL1        0.0000
     21 C          61.5879   85.8936    7.7923 C.ar    1  UNL1        0.0000
     22 C          60.2102   86.4847    7.7418 C.ar    1  UNL1        0.0000
     23 C          59.6037   87.0799    8.9779 C.ar    1  UNL1        0.0000
     24 C          60.3748   87.0840   10.2644 C.ar    1  UNL1        0.0000
     25 O          61.2205   89.8284   12.2742 O.co2   1  UNL1       -0.5445
     26 C          62.3822   89.0902   11.6780 C.2     1  UNL1        0.0756
     27 O          63.0876   89.6465   10.4768 O.co2   1  UNL1       -0.5445
@<TRIPOS>UNITY_ATOM_ATTR
25 1
charge -1
@<TRIPOS>BOND
     1    25    26   ar
     2    26    27   ar
     3    26     1    1
     4     1     2   ar
     5     2    13    1
     6    13    14    1
     7    14    15    1
     8    15    16    1
     9    16    17    1
    10    17    18    1
    11     2     3   ar
    12     3     4   ar
    13     4     5   ar
    14     5     6    1
    15     5     7   ar
    16     7     8   ar
    17     8     9    1
    18     8    10   ar
    19    10    11   ar
    20    11    12   ar
    21    12    19    1
    22    19    20   ar
    23    20    21   ar
    24    21    22   ar
    25    22    23   ar
    26    23    24   ar
    27    12     1   ar
    28    24    19   ar
    29    18    13    1
    30    11     4   ar
@<TRIPOS>MOLECULE
*****
 27 30 0 0 0
SMALL
GASTEIGER

@<TRIPOS>ATOM
      1 C          63.5934   87.2736   13.6105 C.ar    1  UNL1        0.0456
      2 C          63.4455   88.7419   13.3423 C.ar    1  UNL1        0.1327
      3 N          62.7833   89.2109   12.0808 N.ar    1  UNL1       -0.2298
      4 C          62.2690   88.2114   11.0874 C.ar    1  UNL1        0.0932
      5 C          61.6068   88.6804    9.8258 C.ar    1  UNL1        0.0761
      6 CL         61.4588   90.1488    9.5576 Cl      1  UNL1       -0.0806
      7 C          61.0926   87.6810    8.8326 C.ar    1  UNL1        0.0243
      8 C          61.2405   86.2126    9.1008 C.ar    1  UNL1        0.0586
      9 CL         60.7262   85.2131    8.1074 Cl      1  UNL1       -0.0822
     10 C          61.9027   85.7436   10.3624 C.ar    1  UNL1        0.0129
     11 C          62.4169   86.7431   11.3556 C.ar    1  UNL1        0.0195
     12 C          63.0792   86.2741   12.6173 C.ar    1  UNL1        0.0053
     13 N          63.9597   89.7414   14.3357 N.pl3   1  UNL1       -0.2932
     14 C          65.2212   90.5012   14.0507 C.3     1  UNL1        0.0922
     15 C          65.7354   91.5006   15.0440 C.3     1  UNL1        0.0215
     16 C          64.9881   91.7401   16.3224 C.3     1  UNL1        0.0035
     17 C          63.7266   90.9804   16.6073 C.3     1  UNL1        0.0215
     18 C          63.2124   89.9810   15.6140 C.3     1  UNL1        0.0922
     19 C          63.2272   84.8057   12.8855 C.ar    1  UNL1        0.0002
     20 C          62.3699   84.1427   13.9227 C.ar    1  UNL1        0.0000
     21 C          62.5179   82.6743   14.1909 C.ar    1  UNL1        0.0000
     22 C          63.5231   81.8690   13.4220 C.ar    1  UNL1        0.0000
     23 C          64.3802   82.5320   12.3849 C.ar    1  UNL1        0.0000
     24 C          64.2323   84.0004   12.1167 C.ar    1  UNL1        0.0000
     25 O          63.5122   86.8577   16.1739 O.co2   1  UNL1       -0.5445
     26 C          64.2557   86.8046   14.8722 C.2     1  UNL1        0.0756
     27 O          65.6613   86.2826   14.8320 O.co2   1  UNL1       -0.5445
@<TRIPOS>UNITY_ATOM_ATTR
25 1
charge -1
@<TRIPOS>BOND
     1    25    26   ar
     2    26    27   ar
     3    26     1    1
     4     1     2   ar
     5     2    13    1
     6    13    14    1
     7    14    15    1
     8    15    16    1
     9    16    17    1
    10    17    18    1
    11     2     3   ar
    12     3     4   ar
    13     4     5   ar
    14     5     6    1
    15     5     7   ar
    16     7     8   ar
    17     8     9    1
    18     8    10   ar
    19    10    11   ar
    20    11    12   ar
    21    12    19    1
    22    19    20   ar
    23    20    21   ar
    24    21    22   ar
    25    22    23   ar
    26    23    24   ar
    27    12     1   ar
    28    24    19   ar
    29    18    13    1
    30    11     4   ar
@<TRIPOS>MOLECULE
*****
 27 30 0 0 0
SMALL
GASTEIGER

@<TRIPOS>ATOM
      1 C          60.7967   94.0205   -2.1910 C.ar    1  UNL1        0.0456
      2 C          62.2701   93.8060   -2.0087 C.ar    1  UNL1        0.1327
      3 N          62.8037   93.3555   -0.6812 N.ar    1  UNL1       -0.2298
      4 C          61.8641   93.1197    0.4640 C.ar    1  UNL1        0.0932
      5 C          62.3977   92.6692    1.7915 C.ar    1  UNL1        0.0761
      6 CL         63.8711   92.4546    1.9739 Cl      1  UNL1       -0.0806
      7 C          61.4581   92.4334    2.9367 C.ar    1  UNL1        0.0243
      8 C          59.9847   92.6480    2.7543 C.ar    1  UNL1        0.0586
      9 CL         59.0451   92.4121    3.8995 Cl      1  UNL1       -0.0822
     10 C          59.4511   93.0984    1.4268 C.ar    1  UNL1        0.0129
     11 C          60.3907   93.3343    0.2817 C.ar    1  UNL1        0.0195
     12 C          59.8571   93.7847   -1.0459 C.ar    1  UNL1        0.0053
     13 N          63.2097   94.0418   -3.1539 N.pl3   1  UNL1       -0.2932
     14 C          63.8699   95.3785   -3.3193 C.3     1  UNL1        0.0922
     15 C          64.8095   95.6143   -4.4645 C.3     1  UNL1        0.0215
     16 C          65.0890   94.5134   -5.4442 C.3     1  UNL1        0.0035
     17 C          64.4288   93.1767   -5.2788 C.3     1  UNL1        0.0215
     18 C          63.4892   92.9409   -4.1337 C.3     1  UNL1        0.0922
     19 C          58.3837   93.9993   -1.2282 C.ar    1  UNL1        0.0002
     20 C          57.4985   92.8472   -1.6013 C.ar    1  UNL1        0.0000
     21 C          56.0252   93.0618   -1.7837 C.ar    1  UNL1        0.0000
     22 C          55.4371   94.4285   -1.5929 C.ar    1  UNL1        0.0000
     23 C          56.3223   95.5805   -1.2199 C.ar    1  UNL1        0.0000
     24 C          57.7956   95.3659   -1.0375 C.ar    1  UNL1        0.0000
     25 O          60.4386   95.8959   -3.9531 O.co2   1  UNL1       -0.5445
     26 C          60.2631   94.4710   -3.5186 C.2     1  UNL1        0.0756
     27 O          59.5539   93.4966   -4.4116 O.co2   1  UNL1       -0.5445
@<TRIPOS>UNITY_ATOM_ATTR
25 1
charge -1
@<TRIPOS>BOND
     1    25    26   ar
     2    26    27   ar
     3    26     1    1
     4     1     2   ar
     5     2    13    1
     6    13    14    1
     7    14    15    1
     8    15    16    1
     9    16    17    1
    10    17    18    1
    11     2     3   ar
    12     3     4   ar
    13     4     5   ar
    14     5     6    1
    15     5     7   ar
    16     7     8   ar
    17     8     9    1
    18     8    10   ar
    19    10    11   ar
    20    11    12   ar
    21    12    19    1
    22    19    20   ar
    23    20    21   ar
    24    21    22   ar
    25    22    23   ar
    26    23    24   ar
    27    12     1   ar
    28    24    19   ar
    29    18    13    1
    30    11     4   ar
@<TRIPOS>MOLECULE
*****
 27 30 0 0 0
SMALL
GASTEIGER

@<TRIPOS>ATOM
      1 C          60.2619   94.2164   -2.3472 C.ar    1  UNL1        0.0456
      2 C          59.3245   93.9340   -1.2108 C.ar    1  UNL1        0.1327
      3 N          59.8694   93.5596    0.1357 N.ar    1  UNL1       -0.2298
      4 C          61.3518   93.4676    0.3457 C.ar    1  UNL1        0.0932
      5 C          61.8967   93.0932    1.6921 C.ar    1  UNL1        0.0761
      6 CL         60.9592   92.8108    2.8285 Cl      1  UNL1       -0.0806
      7 C          63.3790   93.0012    1.9021 C.ar    1  UNL1        0.0243
      8 C          64.3165   93.2836    0.7657 C.ar    1  UNL1        0.0586
      9 CL         65.7989   93.1916    0.9757 Cl      1  UNL1       -0.0822
     10 C          63.7716   93.6580   -0.5807 C.ar    1  UNL1        0.0129
     11 C          62.2892   93.7500   -0.7907 C.ar    1  UNL1        0.0195
     12 C          61.7442   94.1244   -2.1372 C.ar    1  UNL1        0.0053
     13 N          57.8420   94.0260   -1.4208 N.pl3   1  UNL1       -0.2932
     14 C          57.0572   92.7980   -1.7759 C.3     1  UNL1        0.0922
     15 C          55.5749   92.8901   -1.9860 C.3     1  UNL1        0.0215
     16 C          54.8774   94.2101   -1.8408 C.3     1  UNL1        0.0035
     17 C          55.6622   95.4380   -1.4857 C.3     1  UNL1        0.0215
     18 C          57.1445   95.3460   -1.2757 C.3     1  UNL1        0.0922
     19 C          62.6817   94.4068   -3.2736 C.ar    1  UNL1        0.0002
     20 C          63.1869   95.8008   -3.5004 C.ar    1  UNL1        0.0000
     21 C          64.1244   96.0832   -4.6368 C.ar    1  UNL1        0.0000
     22 C          64.5566   94.9715   -5.5465 C.ar    1  UNL1        0.0000
     23 C          64.0513   93.5776   -5.3197 C.ar    1  UNL1        0.0000
     24 C          63.1139   93.2952   -4.1833 C.ar    1  UNL1        0.0000
     25 O          59.7519   96.0206   -4.1457 O.co2   1  UNL1       -0.5445
     26 C          59.7169   94.5908   -3.6936 C.2     1  UNL1        0.0756
     27 O          59.1370   93.5354   -4.5879 O.co2   1  UNL1       -0.5445
@<TRIPOS>UNITY_ATOM_ATTR
25 1
charge -1
@<TRIPOS>BOND
     1    25    26   ar
     2    26    27   ar
     3    26     1    1
     4     1     2   ar
     5     2    13    1
     6    13    14    1
     7    14    15    1
     8    15    16    1
     9    16    17    1
    10    17    18    1
    11     2     3   ar
    12     3     4   ar
    13     4     5   ar
    14     5     6    1
    15     5     7   ar
    16     7     8   ar
    17     8     9    1
    18     8    10   ar
    19    10    11   ar
    20    11    12   ar
    21    12    19    1
    22    19    20   ar
    23    20    21   ar
    24    21    22   ar
    25    22    23   ar
    26    23    24   ar
    27    12     1   ar
    28    24    19   ar
    29    18    13    1
    30    11     4   ar
