@<TRIPOS>MOLECULE
*****
 39 43 0 0 0
SMALL
GASTEIGER

@<TRIPOS>ATOM
      1 C          60.7319   87.2661   10.0013 C.ar    1  UNL1        0.0502
      2 C          59.8500   86.7906    8.8850 C.ar    1  UNL1        0.0143
      3 C          59.5901   87.6785    7.7043 C.ar    1  UNL1       -0.0030
      4 C          60.2120   89.0420    7.6400 C.ar    1  UNL1       -0.0223
      5 C          61.0938   89.5176    8.7563 C.ar    1  UNL1       -0.0034
      6 C          61.3538   88.6296    9.9369 C.ar    1  UNL1        0.0089
      7 C          59.9520   89.9300    6.4593 C.3     1  UNL1        0.0257
      8 C          61.0993   90.5674    5.7332 C.3     1  UNL1        0.0259
      9 C          60.8393   91.4554    4.5525 C.3     1  UNL1        0.0937
     10 N          59.4320   91.7058    4.0979 N.am    1  UNL1       -0.2792
     11 C          59.1719   92.5937    2.9172 C.2     1  UNL1        0.2301
     12 O          57.7646   92.8441    2.4626 O.2     1  UNL1       -0.2745
     13 C          58.2846   91.0683    4.8240 C.3     1  UNL1        0.0937
     14 C          58.5446   90.1804    6.0047 C.3     1  UNL1        0.0259
     15 C          60.3193   93.2312    2.1912 C.3     1  UNL1        0.1116
     16 C          60.1317   93.7412    0.7930 C.ar    1  UNL1       -0.0100
     17 C          59.8720   95.1992    0.5550 C.ar    1  UNL1        0.0169
     18 C          59.6844   95.7091   -0.8431 C.ar    1  UNL1        0.0986
     19 N          59.7565   94.7610   -2.0032 N.ar    1  UNL1       -0.2423
     20 C          60.0162   93.3030   -1.7652 C.ar    1  UNL1        0.0986
     21 C          60.2038   92.7931   -0.3671 C.ar    1  UNL1        0.0169
     22 C          62.2357   89.1052   11.0532 C.2     1  UNL1       -0.0253
     23 C          62.8164   88.1186   12.0225 C.2     1  UNL1       -0.0303
     24 C          63.6982   88.5940   13.1388 C.3     1  UNL1        0.0257
     25 C          63.9995   90.0561   13.2859 C.3     1  UNL1        0.0050
     26 C          63.4188   91.0427   12.3167 C.3     1  UNL1        0.0050
     27 C          62.5369   90.5672   11.2003 C.3     1  UNL1        0.0261
     28 C          62.0575   85.3251   11.1082 C.2     1  UNL1        0.2837
     29 O          62.8632   85.1600    9.8537 O.2     1  UNL1       -0.2665
     30 N          60.9919   86.3782   11.1820 N.am    1  UNL1       -0.2779
     31 H          60.4631   86.4866   12.0053 H       1  UNL1        0.1553
     32 C          62.7301   82.4728   13.6531 C.ar    1  UNL1        0.1469
     33 C          62.7052   83.6688   14.5582 C.ar    1  UNL1        0.1282
     34 N          62.4502   84.8829   13.7150 N.ar    1  UNL1       -0.2205
     35 C          62.3175   84.4372   12.2888 C.ar    1  UNL1        0.1958
     36 N          62.4905   82.9477   12.2506 N.ar    1  UNL1       -0.3257
     37 H          62.4534   82.3813   11.4463 H       1  UNL1        0.1682
     38 N          63.1802   79.6301   14.4996 N.1     1  UNL1       -0.1893
     39 C          62.9552   81.0514   14.0764 C.1     1  UNL1        0.1194
@<TRIPOS>BOND
     1    38    39    3
     2    39    32    1
     3    32    33   ar
     4    33    34   ar
     5    34    35   ar
     6    35    28    1
     7    28    29    2
     8    28    30   am
     9    30     1    1
    10     1     2   ar
    11     2     3   ar
    12     3     4   ar
    13     4     7    1
    14     7     8    1
    15     8     9    1
    16     9    10    1
    17    10    11   am
    18    11    12    2
    19    11    15    1
    20    15    16    1
    21    16    17   ar
    22    17    18   ar
    23    18    19   ar
    24    19    20   ar
    25    20    21   ar
    26    10    13    1
    27    13    14    1
    28     4     5   ar
    29     5     6   ar
    30     6    22    1
    31    22    23    2
    32    23    24    1
    33    24    25    1
    34    25    26    1
    35    26    27    1
    36    35    36   ar
    37    36    32   ar
    38     6     1   ar
    39    27    22    1
    40    14     7    1
    41    21    16   ar
    42    30    31    1
    43    36    37    1
@<TRIPOS>MOLECULE
*****
 39 43 0 0 0
SMALL
GASTEIGER

@<TRIPOS>ATOM
      1 C          60.7447   87.5605    9.7035 C.ar    1  UNL1        0.0502
      2 C          59.8624   87.0682    8.5948 C.ar    1  UNL1        0.0143
      3 C          59.6379   87.9200    7.3807 C.ar    1  UNL1       -0.0030
      4 C          60.2955   89.2640    7.2753 C.ar    1  UNL1       -0.0223
      5 C          61.1777   89.7563    8.3840 C.ar    1  UNL1       -0.0034
      6 C          61.4023   88.9045    9.5981 C.ar    1  UNL1        0.0089
      7 C          60.0709   90.1157    6.0611 C.3     1  UNL1        0.0257
      8 C          61.2122   90.4192    5.1363 C.3     1  UNL1        0.0259
      9 C          60.9876   91.2710    3.9221 C.3     1  UNL1        0.0937
     10 N          59.6216   91.8192    3.6329 N.am    1  UNL1       -0.2792
     11 C          59.3970   92.6709    2.4188 C.2     1  UNL1        0.2301
     12 O          58.0311   93.2192    2.1295 O.2     1  UNL1       -0.2745
     13 C          58.4803   91.5157    4.5578 C.3     1  UNL1        0.0937
     14 C          58.7050   90.6640    5.7719 C.3     1  UNL1        0.0259
     15 C          60.5383   92.9744    1.4940 C.3     1  UNL1        0.1116
     16 C          61.2866   94.2678    1.6254 C.ar    1  UNL1       -0.0100
     17 C          60.5470   95.5331    1.9445 C.ar    1  UNL1        0.0169
     18 C          61.2954   96.8264    2.0759 C.ar    1  UNL1        0.0986
     19 N          62.7833   96.8544    1.8882 N.ar    1  UNL1       -0.2423
     20 C          63.5229   95.5891    1.5690 C.ar    1  UNL1        0.0986
     21 C          62.7746   94.2958    1.4376 C.ar    1  UNL1        0.0169
     22 C          62.2845   89.3968   10.7069 C.2     1  UNL1       -0.0253
     23 C          62.7866   90.8102   10.6946 C.2     1  UNL1       -0.0303
     24 C          63.6688   91.3025   11.8033 C.3     1  UNL1        0.0257
     25 C          64.0490   90.3814   12.9245 C.3     1  UNL1        0.0050
     26 C          63.5469   88.9679   12.9369 C.3     1  UNL1        0.0050
     27 C          62.6647   88.4757   11.8280 C.3     1  UNL1        0.0261
     28 C          61.9868   85.6072   10.8832 C.2     1  UNL1        0.2837
     29 O          62.7797   85.3573    9.6346 O.2     1  UNL1       -0.2665
     30 N          60.9693   86.7088   10.9177 N.am    1  UNL1       -0.2779
     31 H          60.4489   86.8728   11.7371 H       1  UNL1        0.1553
     32 C          62.5816   82.8332   13.5320 C.ar    1  UNL1        0.1469
     33 C          62.5326   84.0562   14.3992 C.ar    1  UNL1        0.1282
     34 N          62.3038   85.2442   13.5124 N.ar    1  UNL1       -0.2205
     35 C          62.2114   84.7554   12.0973 C.ar    1  UNL1        0.1958
     36 N          62.3831   83.2654   12.1094 N.ar    1  UNL1       -0.3257
     37 H          62.3682   82.6747   11.3219 H       1  UNL1        0.1682
     38 N          63.0027   80.0172   14.4772 N.1     1  UNL1       -0.1893
     39 C          62.7922   81.4252   14.0046 C.1     1  UNL1        0.1194
@<TRIPOS>BOND
     1    38    39    3
     2    39    32    1
     3    32    33   ar
     4    33    34   ar
     5    34    35   ar
     6    35    28    1
     7    28    29    2
     8    28    30   am
     9    30     1    1
    10     1     2   ar
    11     2     3   ar
    12     3     4   ar
    13     4     7    1
    14     7     8    1
    15     8     9    1
    16     9    10    1
    17    10    11   am
    18    11    12    2
    19    11    15    1
    20    15    16    1
    21    16    17   ar
    22    17    18   ar
    23    18    19   ar
    24    19    20   ar
    25    20    21   ar
    26    10    13    1
    27    13    14    1
    28     4     5   ar
    29     5     6   ar
    30     6    22    1
    31    22    23    2
    32    23    24    1
    33    24    25    1
    34    25    26    1
    35    26    27    1
    36    35    36   ar
    37    36    32   ar
    38     6     1   ar
    39    27    22    1
    40    14     7    1
    41    21    16   ar
    42    30    31    1
    43    36    37    1
@<TRIPOS>MOLECULE
*****
 39 43 0 0 0
SMALL
GASTEIGER

@<TRIPOS>ATOM
      1 C          60.7075   87.9174    9.3049 C.ar    1  UNL1        0.0502
      2 C          59.8952   87.4082    8.1513 C.ar    1  UNL1        0.0143
      3 C          59.6890   88.2699    6.9410 C.ar    1  UNL1       -0.0030
      4 C          60.2950   89.6409    6.8843 C.ar    1  UNL1       -0.0223
      5 C          61.1073   90.1501    8.0380 C.ar    1  UNL1       -0.0034
      6 C          61.3135   89.2884    9.2482 C.ar    1  UNL1        0.0089
      7 C          60.0887   90.5027    5.6740 C.3     1  UNL1        0.0257
      8 C          61.2669   90.9404    4.8554 C.3     1  UNL1        0.0259
      9 C          61.0606   91.8022    3.6450 C.3     1  UNL1        0.0937
     10 N          59.6761   92.2261    3.2533 N.am    1  UNL1       -0.2792
     11 C          59.4698   93.0878    2.0430 C.2     1  UNL1        0.2301
     12 O          58.0853   93.5118    1.6514 O.2     1  UNL1       -0.2745
     13 C          58.4979   91.7883    4.0720 C.3     1  UNL1        0.0937
     14 C          58.7042   90.9266    5.2823 C.3     1  UNL1        0.0259
     15 C          60.6480   93.5256    1.2244 C.3     1  UNL1        0.1116
     16 C          60.5412   93.5873   -0.2705 C.ar    1  UNL1       -0.0100
     17 C          59.4045   92.9030   -0.9701 C.ar    1  UNL1        0.0169
     18 C          59.2978   92.9647   -2.4650 C.ar    1  UNL1        0.0986
     19 N          60.3278   93.7107   -3.2603 N.ar    1  UNL1       -0.2423
     20 C          61.4646   94.3949   -2.5607 C.ar    1  UNL1        0.0986
     21 C          61.5713   94.3332   -1.0658 C.ar    1  UNL1        0.0169
     22 C          62.1258   89.7976   10.4020 C.2     1  UNL1       -0.0253
     23 C          63.1354   90.8857   10.1860 C.2     1  UNL1       -0.0303
     24 C          63.9477   91.3949   11.3396 C.3     1  UNL1        0.0257
     25 C          63.7503   90.8160   12.7093 C.3     1  UNL1        0.0050
     26 C          62.7407   89.7279   12.9253 C.3     1  UNL1        0.0050
     27 C          61.9284   89.2187   11.7716 C.3     1  UNL1        0.0261
     28 C          61.9667   85.9874   10.5047 C.2     1  UNL1        0.2837
     29 O          62.8133   85.7808    9.2837 O.2     1  UNL1       -0.2665
     30 N          60.9138   87.0557   10.5153 N.am    1  UNL1       -0.2779
     31 H          60.3581   87.1912   11.3166 H       1  UNL1        0.1553
     32 C          62.4284   84.4034   14.0179 C.ar    1  UNL1        0.1469
     33 C          62.5526   83.1957   13.1369 C.ar    1  UNL1        0.1282
     34 N          62.3947   83.6421   11.7136 N.ar    1  UNL1       -0.2205
     35 C          62.1730   85.1256   11.7149 C.ar    1  UNL1        0.1958
     36 N          62.1938   85.5961   13.1391 N.ar    1  UNL1       -0.3257
     37 H          62.0744   86.5247   13.4435 H       1  UNL1        0.1682
     38 N          62.6162   84.4288   17.0120 N.1     1  UNL1       -0.1893
     39 C          62.5223   84.4161   15.5149 C.1     1  UNL1        0.1194
@<TRIPOS>BOND
     1    38    39    3
     2    39    32    1
     3    32    33   ar
     4    33    34   ar
     5    34    35   ar
     6    35    28    1
     7    28    29    2
     8    28    30   am
     9    30     1    1
    10     1     2   ar
    11     2     3   ar
    12     3     4   ar
    13     4     7    1
    14     7     8    1
    15     8     9    1
    16     9    10    1
    17    10    11   am
    18    11    12    2
    19    11    15    1
    20    15    16    1
    21    16    17   ar
    22    17    18   ar
    23    18    19   ar
    24    19    20   ar
    25    20    21   ar
    26    10    13    1
    27    13    14    1
    28     4     5   ar
    29     5     6   ar
    30     6    22    1
    31    22    23    2
    32    23    24    1
    33    24    25    1
    34    25    26    1
    35    26    27    1
    36    35    36   ar
    37    36    32   ar
    38     6     1   ar
    39    27    22    1
    40    14     7    1
    41    21    16   ar
    42    30    31    1
    43    36    37    1
@<TRIPOS>MOLECULE
*****
 39 43 0 0 0
SMALL
GASTEIGER

@<TRIPOS>ATOM
      1 C          65.2719   92.0254   12.7976 C.ar    1  UNL1        0.0502
      2 C          64.4065   90.9642   13.4099 C.ar    1  UNL1        0.0143
      3 C          63.4091   90.2295   12.5642 C.ar    1  UNL1       -0.0030
      4 C          63.2770   90.5559   11.1061 C.ar    1  UNL1       -0.0223
      5 C          64.1424   91.6171   10.4938 C.ar    1  UNL1       -0.0034
      6 C          65.1398   92.3518   11.3395 C.ar    1  UNL1        0.0089
      7 C          62.2796   89.8211   10.2604 C.3     1  UNL1        0.0257
      8 C          61.1648   90.5710    9.5935 C.3     1  UNL1        0.0259
      9 C          60.1673   89.8362    8.7477 C.3     1  UNL1        0.0937
     10 N          60.2847   88.3515    8.5690 N.am    1  UNL1       -0.2792
     11 C          59.2873   87.6167    7.7233 C.2     1  UNL1        0.2301
     12 O          59.4047   86.1321    7.5446 O.2     1  UNL1       -0.2745
     13 C          61.3996   87.6017    9.2360 C.3     1  UNL1        0.0937
     14 C          62.3970   88.3365   10.0817 C.3     1  UNL1        0.0259
     15 C          58.1725   88.3666    7.0564 C.3     1  UNL1        0.1116
     16 C          58.4781   89.5603    6.2009 C.ar    1  UNL1       -0.0100
     17 C          59.8951   89.8612    5.8118 C.ar    1  UNL1        0.0169
     18 C          60.2006   91.0549    4.9564 C.ar    1  UNL1        0.0986
     19 N          59.0891   91.9477    4.4901 N.ar    1  UNL1       -0.2423
     20 C          57.6721   91.6468    4.8792 C.ar    1  UNL1        0.0986
     21 C          57.3666   90.4531    5.7346 C.ar    1  UNL1        0.0169
     22 C          66.0052   93.4131   10.7272 C.2     1  UNL1       -0.0253
     23 C          67.2001   93.0257    9.9073 C.2     1  UNL1       -0.0303
     24 C          68.0655   94.0869    9.2949 C.3     1  UNL1        0.0257
     25 C          67.7360   95.5355    9.5025 C.3     1  UNL1        0.0050
     26 C          66.5412   95.9229   10.3224 C.3     1  UNL1        0.0050
     27 C          65.6758   94.8616   10.9347 C.3     1  UNL1        0.0261
     28 C          67.2138   91.9963   14.5234 C.2     1  UNL1        0.2837
     29 O          67.1607   90.4976   14.5577 O.2     1  UNL1       -0.2665
     30 N          66.2693   92.7602   13.6433 N.am    1  UNL1       -0.2779
     31 H          66.3041   93.7438   13.6208 H       1  UNL1        0.1553
     32 C          70.0621   93.2096   16.8643 C.ar    1  UNL1        0.1469
     33 C          69.4302   94.5137   16.4767 C.ar    1  UNL1        0.1282
     34 N          68.2863   94.2178   15.5526 N.ar    1  UNL1       -0.2205
     35 C          68.2112   92.7310   15.3691 C.ar    1  UNL1        0.1958
     36 N          69.3087   92.1079   16.1797 N.ar    1  UNL1       -0.3257
     37 H          69.5008   91.1449   16.2501 H       1  UNL1        0.1682
     38 N          72.4189   92.8654   18.6884 N.1     1  UNL1       -0.1893
     39 C          71.2405   93.0375   17.7763 C.1     1  UNL1        0.1194
@<TRIPOS>BOND
     1    38    39    3
     2    39    32    1
     3    32    33   ar
     4    33    34   ar
     5    34    35   ar
     6    35    28    1
     7    28    29    2
     8    28    30   am
     9    30     1    1
    10     1     2   ar
    11     2     3   ar
    12     3     4   ar
    13     4     7    1
    14     7     8    1
    15     8     9    1
    16     9    10    1
    17    10    11   am
    18    11    12    2
    19    11    15    1
    20    15    16    1
    21    16    17   ar
    22    17    18   ar
    23    18    19   ar
    24    19    20   ar
    25    20    21   ar
    26    10    13    1
    27    13    14    1
    28     4     5   ar
    29     5     6   ar
    30     6    22    1
    31    22    23    2
    32    23    24    1
    33    24    25    1
    34    25    26    1
    35    26    27    1
    36    35    36   ar
    37    36    32   ar
    38     6     1   ar
    39    27    22    1
    40    14     7    1
    41    21    16   ar
    42    30    31    1
    43    36    37    1
