@<TRIPOS>MOLECULE
*****
 35 38 0 0 0
SMALL
GASTEIGER

@<TRIPOS>ATOM
      1 C          59.6958   91.3074    4.8222 C.ar    1  UNL1       -0.0044
      2 C          61.1394   90.9423    4.6420 C.ar    1  UNL1       -0.0014
      3 C          61.9398   91.5699    3.5395 C.ar    1  UNL1        0.0144
      4 C          61.2965   92.5627    2.6173 C.ar    1  UNL1        0.0516
      5 C          59.8528   92.9279    2.7975 C.ar    1  UNL1        0.0144
      6 C          59.0524   92.3002    3.9000 C.ar    1  UNL1       -0.0014
      7 N          62.0968   93.1904    1.5148 N.am    1  UNL1       -0.2681
      8 C          61.8320   92.8132    0.0874 C.2     1  UNL1        0.3077
      9 O          60.7667   91.8084   -0.2376 O.2     1  UNL1       -0.2522
     10 N          62.6323   93.4409   -1.0151 N.am    1  UNL1       -0.2632
     11 C          62.6552   93.3205   -2.5101 C.3     1  UNL1        0.1010
     12 C          63.7642   94.3285   -2.5742 C.3     1  UNL1        0.0636
     13 C          63.7413   94.4489   -1.0793 C.3     1  UNL1        0.1010
     14 H          62.7960   93.8499    1.7281 H       1  UNL1        0.1564
     15 C          64.5646   94.9562   -3.6767 C.ar    1  UNL1        0.0001
     16 C          65.3190   96.2280   -3.4254 C.ar    1  UNL1        0.0002
     17 C          66.1193   96.8557   -4.5279 C.ar    1  UNL1        0.0336
     18 C          66.1653   96.2115   -5.8817 C.ar    1  UNL1        0.1254
     19 N          66.9656   96.8391   -6.9842 N.pl3   1  UNL1       -0.3426
     20 N          65.4109   94.9396   -6.1330 N.ar    1  UNL1       -0.2299
     21 C          64.6105   94.3120   -5.0305 C.ar    1  UNL1        0.0961
     22 H          67.4608   97.6739   -6.8192 H       1  UNL1        0.1437
     23 H          66.9958   96.4163   -7.8727 H       1  UNL1        0.1437
     24 C          57.4102   90.5272    5.7801 C.3     1  UNL1        0.0262
     25 C          58.8954   90.6797    5.9247 C.3     1  UNL1        0.0945
     26 N          59.5803   90.2046    7.1718 N.am    1  UNL1       -0.2962
     27 C          59.6720   88.7362    7.4642 C.2     1  UNL1        0.2821
     28 O          59.0788   87.7430    6.5094 O.2     1  UNL1       -0.2668
     29 H          59.9696   90.8565    7.7985 H       1  UNL1        0.1501
     30 C          60.3569   88.2611    8.7113 C.ar    1  UNL1        0.2169
     31 N          60.5350   89.1951    9.8714 N.ar    1  UNL1       -0.2212
     32 C          61.2199   88.7199   11.1184 C.ar    1  UNL1        0.1023
     33 C          61.7266   87.3107   11.2053 C.ar    1  UNL1        0.0414
     34 C          61.5484   86.3768   10.0452 C.ar    1  UNL1        0.1023
     35 N          60.8636   86.8519    8.7982 N.ar    1  UNL1       -0.2212
@<TRIPOS>BOND
     1    25    24    1
     2    25    26    1
     3    26    27   am
     4    27    28    2
     5    27    30    1
     6    30    31   ar
     7    31    32   ar
     8    32    33   ar
     9    33    34   ar
    10    34    35   ar
    11    25     1    1
    12     1     2   ar
    13     2     3   ar
    14     3     4   ar
    15     4     7    1
    16     7     8   am
    17     8     9    2
    18     8    10   am
    19    10    11    1
    20    11    12    1
    21    12    15    1
    22    15    16   ar
    23    16    17   ar
    24    17    18   ar
    25    18    19    1
    26    18    20   ar
    27    20    21   ar
    28    12    13    1
    29     4     5   ar
    30     5     6   ar
    31    35    30   ar
    32     6     1   ar
    33    13    10    1
    34    21    15   ar
    35    26    29    1
    36     7    14    1
    37    19    22    1
    38    19    23    1
@<TRIPOS>MOLECULE
*****
 35 38 0 0 0
SMALL
GASTEIGER

@<TRIPOS>ATOM
      1 C          59.0485   95.0703   -0.1460 C.ar    1  UNL1       -0.0044
      2 C          58.6427   93.6265   -0.1711 C.ar    1  UNL1       -0.0014
      3 C          58.9834   92.7315    0.9834 C.ar    1  UNL1        0.0144
      4 C          59.7301   93.2803    2.1629 C.ar    1  UNL1        0.0516
      5 C          60.1360   94.7241    2.1880 C.ar    1  UNL1        0.0144
      6 C          59.7952   95.6192    1.0336 C.ar    1  UNL1       -0.0014
      7 N          60.0708   92.3852    3.3174 N.am    1  UNL1       -0.2681
      8 C          58.9788   91.8241    4.1791 C.2     1  UNL1        0.3077
      9 O          57.5461   92.1579    3.8864 O.2     1  UNL1       -0.2522
     10 N          59.3196   90.9290    5.3336 N.am    1  UNL1       -0.2632
     11 C          58.5298   90.2034    6.3823 C.3     1  UNL1        0.1010
     12 C          59.8015   89.6633    6.9663 C.3     1  UNL1        0.0636
     13 C          60.5913   90.3889    5.9177 C.3     1  UNL1        0.1010
     14 H          61.0112   92.1661    3.5095 H       1  UNL1        0.1564
     15 C          60.1422   88.7683    8.1207 C.ar    1  UNL1        0.0001
     16 C          60.0975   87.2784    7.9533 C.ar    1  UNL1        0.0002
     17 C          60.4382   86.3833    9.1078 C.ar    1  UNL1        0.0336
     18 C          60.8238   86.9782   10.4297 C.ar    1  UNL1        0.1254
     19 N          61.1645   86.0832   11.5842 N.pl3   1  UNL1       -0.3426
     20 N          60.8685   88.4681   10.5971 N.ar    1  UNL1       -0.2299
     21 C          60.5278   89.3632    9.4426 C.ar    1  UNL1        0.0961
     22 H          61.1351   85.1053   11.4743 H       1  UNL1        0.1437
     23 H          61.4175   86.4737   12.4518 H       1  UNL1        0.1437
     24 C          59.8023   96.5768   -2.1240 C.3     1  UNL1        0.0262
     25 C          58.7078   95.9653   -1.3005 C.3     1  UNL1        0.0945
     26 N          57.2724   96.2489   -1.6315 N.am    1  UNL1       -0.2962
     27 C          56.5449   95.3832   -2.6170 C.2     1  UNL1        0.2821
     28 O          57.2527   94.2340   -3.2716 O.2     1  UNL1       -0.2668
     29 H          56.8079   97.0031   -1.2019 H       1  UNL1        0.1501
     30 C          55.1096   95.6667   -2.9481 C.ar    1  UNL1        0.2169
     31 N          54.7165   96.0003   -4.3566 N.ar    1  UNL1       -0.2212
     32 C          53.2812   96.2838   -4.6876 C.ar    1  UNL1        0.1023
     33 C          52.2390   96.2337   -3.6099 C.ar    1  UNL1        0.0414
     34 C          52.6321   95.9001   -2.2014 C.ar    1  UNL1        0.1023
     35 N          54.0674   95.6166   -1.8704 N.ar    1  UNL1       -0.2212
@<TRIPOS>BOND
     1    25    24    1
     2    25    26    1
     3    26    27   am
     4    27    28    2
     5    27    30    1
     6    30    31   ar
     7    31    32   ar
     8    32    33   ar
     9    33    34   ar
    10    34    35   ar
    11    25     1    1
    12     1     2   ar
    13     2     3   ar
    14     3     4   ar
    15     4     7    1
    16     7     8   am
    17     8     9    2
    18     8    10   am
    19    10    11    1
    20    11    12    1
    21    12    15    1
    22    15    16   ar
    23    16    17   ar
    24    17    18   ar
    25    18    19    1
    26    18    20   ar
    27    20    21   ar
    28    12    13    1
    29     4     5   ar
    30     5     6   ar
    31    35    30   ar
    32     6     1   ar
    33    13    10    1
    34    21    15   ar
    35    26    29    1
    36     7    14    1
    37    19    22    1
    38    19    23    1
@<TRIPOS>MOLECULE
*****
 35 38 0 0 0
SMALL
GASTEIGER

@<TRIPOS>ATOM
      1 C          59.9914   88.3472    9.3609 C.ar    1  UNL1       -0.0044
      2 C          60.5063   89.7487    9.2175 C.ar    1  UNL1       -0.0014
      3 C          60.2717   90.5074    7.9450 C.ar    1  UNL1        0.0144
      4 C          59.5221   89.8646    6.8159 C.ar    1  UNL1        0.0516
      5 C          59.0071   88.4630    6.9593 C.ar    1  UNL1        0.0144
      6 C          59.2418   87.7043    8.2318 C.ar    1  UNL1       -0.0014
      7 N          59.2874   90.6233    5.5434 N.am    1  UNL1       -0.2681
      8 C          60.4483   91.2031    4.7909 C.2     1  UNL1        0.3077
      9 O          61.8438   91.0241    5.3109 O.2     1  UNL1       -0.2522
     10 N          60.2136   91.9618    3.5184 N.am    1  UNL1       -0.2632
     11 C          61.0913   92.6619    2.5236 C.3     1  UNL1        0.1010
     12 C          59.8817   93.0347    1.7188 C.3     1  UNL1        0.0636
     13 C          59.0039   92.3347    2.7135 C.3     1  UNL1        0.1010
     14 H          58.3715   90.7408    5.2021 H       1  UNL1        0.1564
     15 C          59.6470   93.7935    0.4463 C.ar    1  UNL1        0.0001
     16 C          59.5724   93.0612   -0.8606 C.ar    1  UNL1        0.0002
     17 C          59.3377   93.8199   -2.1331 C.ar    1  UNL1        0.0336
     18 C          59.1777   95.3109   -2.0987 C.ar    1  UNL1        0.1254
     19 N          58.9430   96.0696   -3.3712 N.pl3   1  UNL1       -0.3426
     20 N          59.2523   96.0432   -0.7918 N.ar    1  UNL1       -0.2299
     21 C          59.4870   95.2845    0.4807 C.ar    1  UNL1        0.0961
     22 H          58.8940   95.5890   -4.2290 H       1  UNL1        0.1437
     23 H          58.8379   97.0482   -3.3486 H       1  UNL1        0.1437
     24 C          59.8131   88.1820   11.9476 C.3     1  UNL1        0.0262
     25 C          60.2261   87.5885   10.6335 C.3     1  UNL1        0.0945
     26 N          60.8739   86.2361   10.5918 N.am    1  UNL1       -0.2962
     27 C          62.1385   85.9863   11.3587 C.2     1  UNL1        0.2821
     28 O          62.7554   87.0887   12.1674 O.2     1  UNL1       -0.2668
     29 H          60.4689   85.5125   10.0610 H       1  UNL1        0.1501
     30 C          62.7862   84.6339   11.3170 C.ar    1  UNL1        0.2169
     31 N          63.4820   84.1737   10.0704 N.ar    1  UNL1       -0.2212
     32 C          64.1297   82.8214   10.0288 C.ar    1  UNL1        0.1023
     33 C          64.0816   81.9294   11.2337 C.ar    1  UNL1        0.0414
     34 C          63.3858   82.3896   12.4803 C.ar    1  UNL1        0.1023
     35 N          62.7382   83.7419   12.5220 N.ar    1  UNL1       -0.2212
@<TRIPOS>BOND
     1    25    24    1
     2    25    26    1
     3    26    27   am
     4    27    28    2
     5    27    30    1
     6    30    31   ar
     7    31    32   ar
     8    32    33   ar
     9    33    34   ar
    10    34    35   ar
    11    25     1    1
    12     1     2   ar
    13     2     3   ar
    14     3     4   ar
    15     4     7    1
    16     7     8   am
    17     8     9    2
    18     8    10   am
    19    10    11    1
    20    11    12    1
    21    12    15    1
    22    15    16   ar
    23    16    17   ar
    24    17    18   ar
    25    18    19    1
    26    18    20   ar
    27    20    21   ar
    28    12    13    1
    29     4     5   ar
    30     5     6   ar
    31    35    30   ar
    32     6     1   ar
    33    13    10    1
    34    21    15   ar
    35    26    29    1
    36     7    14    1
    37    19    22    1
    38    19    23    1
@<TRIPOS>MOLECULE
*****
 35 38 0 0 0
SMALL
GASTEIGER

@<TRIPOS>ATOM
      1 C          64.5338   90.9020   14.2461 C.ar    1  UNL1       -0.0044
      2 C          64.9277   89.7104   15.0676 C.ar    1  UNL1       -0.0014
      3 C          64.6060   88.3271   14.5849 C.ar    1  UNL1        0.0144
      4 C          63.8905   88.1353   13.2807 C.ar    1  UNL1        0.0516
      5 C          63.4965   89.3269   12.4590 C.ar    1  UNL1        0.0144
      6 C          63.8181   90.7102   12.9417 C.ar    1  UNL1       -0.0014
      7 N          63.5688   86.7520   12.7980 N.am    1  UNL1       -0.2681
      8 C          64.2195   85.5632   13.4408 C.2     1  UNL1        0.3077
      9 O          65.1918   85.7576   14.5662 O.2     1  UNL1       -0.2522
     10 N          63.8978   84.1799   12.9581 N.am    1  UNL1       -0.2632
     11 C          64.3330   82.7957   13.3387 C.3     1  UNL1        0.1010
     12 C          63.4430   82.2236   12.2755 C.3     1  UNL1        0.0636
     13 C          63.0078   83.6077   11.8948 C.3     1  UNL1        0.1010
     14 H          62.9306   86.6244   12.0593 H       1  UNL1        0.1564
     15 C          63.1213   80.8403   11.7928 C.ar    1  UNL1        0.0001
     16 C          63.2422   80.5075   10.3352 C.ar    1  UNL1        0.0002
     17 C          62.9206   79.1242    9.8525 C.ar    1  UNL1        0.0336
     18 C          62.4780   78.0736   10.8274 C.ar    1  UNL1        0.1254
     19 N          62.1564   76.6903   10.3447 N.pl3   1  UNL1       -0.3426
     20 N          62.3571   78.4064   12.2850 N.ar    1  UNL1       -0.2299
     21 C          62.6788   79.7897   12.7677 C.ar    1  UNL1        0.0961
     22 H          62.2358   76.4719    9.3880 H       1  UNL1        0.1437
     23 H          61.8659   76.0008   10.9846 H       1  UNL1        0.1437
     24 C          64.9104   92.5724   16.2000 C.3     1  UNL1        0.0262
     25 C          64.8554   92.2853   14.7288 C.3     1  UNL1        0.0945
     26 N          65.1220   93.3815   13.7401 N.am    1  UNL1       -0.2962
     27 C          66.2696   93.2640   12.7814 C.2     1  UNL1        0.2821
     28 O          67.1505   92.0503   12.8111 O.2     1  UNL1       -0.2668
     29 H          64.5438   94.1781   13.7206 H       1  UNL1        0.1501
     30 C          66.5362   94.3602   11.7927 C.ar    1  UNL1        0.2169
     31 N          67.2574   94.0570   10.5130 N.ar    1  UNL1       -0.2212
     32 C          67.5240   95.1532    9.5245 C.ar    1  UNL1        0.1023
     33 C          67.0694   96.5526    9.8157 C.ar    1  UNL1        0.0414
     34 C          66.3481   96.8559   11.0955 C.ar    1  UNL1        0.1023
     35 N          66.0816   95.7597   12.0840 N.ar    1  UNL1       -0.2212
@<TRIPOS>BOND
     1    25    24    1
     2    25    26    1
     3    26    27   am
     4    27    28    2
     5    27    30    1
     6    30    31   ar
     7    31    32   ar
     8    32    33   ar
     9    33    34   ar
    10    34    35   ar
    11    25     1    1
    12     1     2   ar
    13     2     3   ar
    14     3     4   ar
    15     4     7    1
    16     7     8   am
    17     8     9    2
    18     8    10   am
    19    10    11    1
    20    11    12    1
    21    12    15    1
    22    15    16   ar
    23    16    17   ar
    24    17    18   ar
    25    18    19    1
    26    18    20   ar
    27    20    21   ar
    28    12    13    1
    29     4     5   ar
    30     5     6   ar
    31    35    30   ar
    32     6     1   ar
    33    13    10    1
    34    21    15   ar
    35    26    29    1
    36     7    14    1
    37    19    22    1
    38    19    23    1
@<TRIPOS>MOLECULE
*****
 35 38 0 0 0
SMALL
GASTEIGER

@<TRIPOS>ATOM
      1 C          65.5592   91.9777   13.7400 C.ar    1  UNL1       -0.0044
      2 C          65.7621   90.9994   14.8589 C.ar    1  UNL1       -0.0014
      3 C          65.1226   89.6440   14.7952 C.ar    1  UNL1        0.0144
      4 C          64.2803   89.2669   13.6128 C.ar    1  UNL1        0.0516
      5 C          64.0774   90.2452   12.4939 C.ar    1  UNL1        0.0144
      6 C          64.7168   91.6006   12.5575 C.ar    1  UNL1       -0.0014
      7 N          63.6408   87.9115   13.5491 N.am    1  UNL1       -0.2681
      8 C          64.2813   86.7467   14.2440 C.2     1  UNL1        0.3077
      9 O          65.5613   86.9372   15.0025 O.2     1  UNL1       -0.2522
     10 N          63.6419   85.3913   14.1803 N.am    1  UNL1       -0.2632
     11 C          63.9738   84.0351   14.7287 C.3     1  UNL1        0.1010
     12 C          62.7376   83.4745   14.0903 C.3     1  UNL1        0.0636
     13 C          62.4056   84.8307   13.5420 C.3     1  UNL1        0.1010
     14 H          62.8007   87.7865   13.0513 H       1  UNL1        0.1564
     15 C          62.0981   82.1192   14.0267 C.ar    1  UNL1        0.0001
     16 C          62.8916   80.9369   13.5549 C.ar    1  UNL1        0.0002
     17 C          62.2522   79.5816   13.4912 C.ar    1  UNL1        0.0336
     18 C          60.8192   79.4084   13.8994 C.ar    1  UNL1        0.1254
     19 N          60.1798   78.0530   13.8357 N.pl3   1  UNL1       -0.3426
     20 N          60.0257   80.5906   14.3712 N.ar    1  UNL1       -0.2299
     21 C          60.6652   81.9460   14.4348 C.ar    1  UNL1        0.0961
     22 H          60.7006   77.2771   13.5261 H       1  UNL1        0.1437
     23 H          59.2393   77.9394   14.1036 H       1  UNL1        0.1437
     24 C          66.9847   93.7353   15.0162 C.3     1  UNL1        0.0262
     25 C          66.1986   93.3331   13.8037 C.3     1  UNL1        0.0945
     26 N          66.0520   94.2862   12.6547 N.am    1  UNL1       -0.2962
     27 C          66.7298   93.9962   11.3484 C.2     1  UNL1        0.2821
     28 O          67.5542   92.7530   11.1910 O.2     1  UNL1       -0.2668
     29 H          65.5108   95.1022   12.7580 H       1  UNL1        0.1501
     30 C          66.5831   94.9494   10.1995 C.ar    1  UNL1        0.2169
     31 N          67.6012   94.9586    9.0980 N.ar    1  UNL1       -0.2212
     32 C          67.4545   95.9117    7.9491 C.ar    1  UNL1        0.1023
     33 C          66.2897   96.8556    7.9017 C.ar    1  UNL1        0.0414
     34 C          65.2716   96.8464    9.0032 C.ar    1  UNL1        0.1023
     35 N          65.4183   95.8933   10.1521 N.ar    1  UNL1       -0.2212
@<TRIPOS>BOND
     1    25    24    1
     2    25    26    1
     3    26    27   am
     4    27    28    2
     5    27    30    1
     6    30    31   ar
     7    31    32   ar
     8    32    33   ar
     9    33    34   ar
    10    34    35   ar
    11    25     1    1
    12     1     2   ar
    13     2     3   ar
    14     3     4   ar
    15     4     7    1
    16     7     8   am
    17     8     9    2
    18     8    10   am
    19    10    11    1
    20    11    12    1
    21    12    15    1
    22    15    16   ar
    23    16    17   ar
    24    17    18   ar
    25    18    19    1
    26    18    20   ar
    27    20    21   ar
    28    12    13    1
    29     4     5   ar
    30     5     6   ar
    31    35    30   ar
    32     6     1   ar
    33    13    10    1
    34    21    15   ar
    35    26    29    1
    36     7    14    1
    37    19    22    1
    38    19    23    1
@<TRIPOS>MOLECULE
*****
 35 38 0 0 0
SMALL
GASTEIGER

@<TRIPOS>ATOM
      1 C          60.9179   88.3643    9.3595 C.ar    1  UNL1       -0.0044
      2 C          61.2695   89.8133    9.1962 C.ar    1  UNL1       -0.0014
      3 C          60.8088   90.5647    7.9824 C.ar    1  UNL1        0.0144
      4 C          59.9966   89.8671    6.9320 C.ar    1  UNL1        0.0516
      5 C          59.6449   88.4180    7.0952 C.ar    1  UNL1        0.0144
      6 C          60.1056   87.6666    8.3090 C.ar    1  UNL1       -0.0014
      7 N          59.5359   90.6184    5.7182 N.am    1  UNL1       -0.2681
      8 C          60.5417   91.1908    4.7639 C.2     1  UNL1        0.3077
      9 O          62.0082   91.0117    5.0234 O.2     1  UNL1       -0.2522
     10 N          60.0810   91.9422    3.5502 N.am    1  UNL1       -0.2632
     11 C          60.7647   92.6341    2.4082 C.3     1  UNL1        0.1010
     12 C          59.4296   93.0048    1.8337 C.3     1  UNL1        0.0636
     13 C          58.7459   92.3129    2.9756 C.3     1  UNL1        0.1010
     14 H          58.5734   90.7359    5.5479 H       1  UNL1        0.1564
     15 C          58.9689   93.7562    0.6199 C.ar    1  UNL1        0.0001
     16 C          58.1364   93.0650   -0.4189 C.ar    1  UNL1        0.0002
     17 C          57.6757   93.8164   -1.6326 C.ar    1  UNL1        0.0336
     18 C          58.0476   95.2590   -1.8076 C.ar    1  UNL1        0.1254
     19 N          57.5869   96.0104   -3.0213 N.pl3   1  UNL1       -0.3426
     20 N          58.8801   95.9502   -0.7688 N.ar    1  UNL1       -0.2299
     21 C          59.3407   95.1988    0.4450 C.ar    1  UNL1        0.0961
     22 H          57.0405   95.5567   -3.7031 H       1  UNL1        0.1437
     23 H          57.8310   96.9572   -3.1362 H       1  UNL1        0.1437
     24 C          60.8599   86.2313   10.8417 C.3     1  UNL1        0.0262
     25 C          61.3786   87.6129   10.5732 C.3     1  UNL1        0.0945
     26 N          62.3579   88.2432   11.5186 N.am    1  UNL1       -0.2962
     27 C          61.9015   89.3076   12.4718 C.2     1  UNL1        0.2821
     28 O          60.4658   89.7418   12.4798 O.2     1  UNL1       -0.2668
     29 H          63.3003   87.9582   11.5134 H       1  UNL1        0.1501
     30 C          62.8809   89.9379   13.4172 C.ar    1  UNL1        0.2169
     31 N          64.0460   90.7160   12.8814 N.ar    1  UNL1       -0.2212
     32 C          65.0253   91.3462   13.8268 C.ar    1  UNL1        0.1023
     33 C          64.8395   91.1984   15.3078 C.ar    1  UNL1        0.0414
     34 C          63.6745   90.4203   15.8436 C.ar    1  UNL1        0.1023
     35 N          62.6951   89.7900   14.8983 N.ar    1  UNL1       -0.2212
@<TRIPOS>BOND
     1    25    24    1
     2    25    26    1
     3    26    27   am
     4    27    28    2
     5    27    30    1
     6    30    31   ar
     7    31    32   ar
     8    32    33   ar
     9    33    34   ar
    10    34    35   ar
    11    25     1    1
    12     1     2   ar
    13     2     3   ar
    14     3     4   ar
    15     4     7    1
    16     7     8   am
    17     8     9    2
    18     8    10   am
    19    10    11    1
    20    11    12    1
    21    12    15    1
    22    15    16   ar
    23    16    17   ar
    24    17    18   ar
    25    18    19    1
    26    18    20   ar
    27    20    21   ar
    28    12    13    1
    29     4     5   ar
    30     5     6   ar
    31    35    30   ar
    32     6     1   ar
    33    13    10    1
    34    21    15   ar
    35    26    29    1
    36     7    14    1
    37    19    22    1
    38    19    23    1
