@<TRIPOS>MOLECULE
*****
 33 36 0 0 0
SMALL
GASTEIGER

@<TRIPOS>ATOM
      1 C          65.6434   92.8947   12.1357 C.3     1  UNL1        0.0276
      2 C          64.8344   91.6340   12.2136 C.3     1  UNL1        0.1109
      3 C          64.4936   92.0765   10.8214 C.3     1  UNL1        0.0276
      4 C          63.9070   90.5269   11.8081 C.ar    1  UNL1        0.1375
      5 N          63.1509   90.2651   10.5393 N.ar    1  UNL1       -0.2280
      6 C          62.3780   88.9916   10.7147 C.ar    1  UNL1        0.1125
      7 C          62.6564   88.4664   12.0919 C.ar    1  UNL1        0.1318
      8 N          63.6014   89.4152   12.7676 N.ar    1  UNL1       -0.3006
      9 C          64.2231   89.4106   14.1327 C.3     1  UNL1        0.1299
     10 C          65.1504   90.5176   14.5382 C.3     1  UNL1        0.1182
     11 N          65.4561   91.6293   13.5787 N.am    1  UNL1       -0.2732
     12 C          66.3834   92.7364   13.9843 C.2     1  UNL1        0.2418
     13 O          66.6891   93.8481   13.0247 O.2     1  UNL1       -0.2734
     14 C          61.4836   88.3552    9.6924 C.ar    1  UNL1        0.0205
     15 C          60.2923   89.1016    9.1695 C.ar    1  UNL1        0.0039
     16 C          59.3979   88.4651    8.1472 C.ar    1  UNL1        0.0297
     17 C          59.6949   87.0822    7.6479 C.ar    1  UNL1        0.1401
     18 F          58.8006   86.4457    6.6256 F       1  UNL1       -0.2042
     19 C          60.8862   86.3358    8.1709 C.ar    1  UNL1        0.0297
     20 C          61.7806   86.9723    9.1931 C.ar    1  UNL1        0.0039
     21 C          67.0051   92.7317   15.3493 C.3     1  UNL1        0.1517
     22 N          66.1711   93.0518   16.5544 N.3     1  UNL1       -0.3135
     23 H          65.8669   94.0243   16.5087 H       1  UNL1        0.1193
     24 H          66.7248   92.9080   17.3989 H       1  UNL1        0.1193
     25 N          62.0894   87.2124   12.6886 N.pl3   1  UNL1       -0.2980
     26 H          61.2181   87.2355   13.1464 H       1  UNL1        0.1536
     27 C          62.8497   85.9234   12.5877 C.ar    1  UNL1        0.0495
     28 C          63.8573   85.5627   13.6388 C.ar    1  UNL1        0.0169
     29 C          64.6177   84.2737   13.5380 C.ar    1  UNL1        0.0309
     30 C          64.3705   83.3453   12.3860 C.ar    1  UNL1        0.1402
     31 F          65.1309   82.0562   12.2852 F       1  UNL1       -0.2042
     32 C          63.3630   83.7059   11.3349 C.ar    1  UNL1        0.0309
     33 C          62.6026   84.9950   11.4358 C.ar    1  UNL1        0.0169
@<TRIPOS>BOND
     1     1     2    1
     2     2     3    1
     3     2     4    1
     4     4     5   ar
     5     5     6   ar
     6     6    14    1
     7    14    15   ar
     8    15    16   ar
     9    16    17   ar
    10    17    18    1
    11    17    19   ar
    12    19    20   ar
    13     6     7   ar
    14     7    25    1
    15    25    27    1
    16    27    28   ar
    17    28    29   ar
    18    29    30   ar
    19    30    31    1
    20    30    32   ar
    21    32    33   ar
    22     7     8   ar
    23     8     9    1
    24     9    10    1
    25    10    11    1
    26    11    12   am
    27    12    13    2
    28    12    21    1
    29    21    22    1
    30    11     2    1
    31     8     4   ar
    32    20    14   ar
    33    33    27   ar
    34    25    26    1
    35    22    23    1
    36    22    24    1
@<TRIPOS>MOLECULE
*****
 33 36 0 0 0
SMALL
GASTEIGER

@<TRIPOS>ATOM
      1 C          66.7383   93.6847   12.2111 C.3     1  UNL1        0.0276
      2 C          65.7122   92.5919   12.2660 C.3     1  UNL1        0.1109
      3 C          66.4178   92.3522   13.5678 C.3     1  UNL1        0.0276
      4 C          64.9312   91.4159   12.7729 C.ar    1  UNL1        0.1375
      5 N          65.0433   90.6022   14.0281 N.ar    1  UNL1       -0.2280
      6 C          63.9824   89.5425   13.9899 C.ar    1  UNL1        0.1125
      7 C          63.2146   89.7012   12.7112 C.ar    1  UNL1        0.1318
      8 N          63.8009   90.8590   11.9590 N.ar    1  UNL1       -0.3006
      9 C          63.4516   91.4781   10.6382 C.3     1  UNL1        0.1299
     10 C          64.2326   92.6541   10.1313 C.3     1  UNL1        0.1182
     11 N          65.3629   93.2110   10.9451 N.am    1  UNL1       -0.2732
     12 C          66.1439   94.3870   10.4381 C.2     1  UNL1        0.2418
     13 O          67.2742   94.9439   11.2520 O.2     1  UNL1       -0.2734
     14 C          63.7332   88.5061   15.0452 C.ar    1  UNL1        0.0205
     15 C          63.0763   88.8937   16.3368 C.ar    1  UNL1        0.0039
     16 C          62.8270   87.8572   17.3921 C.ar    1  UNL1        0.0297
     17 C          63.2346   86.4332   17.1558 C.ar    1  UNL1        0.1401
     18 F          62.9854   85.3967   18.2111 F       1  UNL1       -0.2042
     19 C          63.8915   86.0456   15.8642 C.ar    1  UNL1        0.0297
     20 C          64.1408   87.0820   14.8089 C.ar    1  UNL1        0.0039
     21 C          65.7947   95.0062    9.1173 C.3     1  UNL1        0.1517
     22 N          66.8187   95.0661    8.0228 N.3     1  UNL1       -0.3135
     23 H          67.5812   95.6826    8.3040 H       1  UNL1        0.1193
     24 H          66.3864   95.4263    7.1721 H       1  UNL1        0.1193
     25 N          62.0626   88.8514   12.2632 N.pl3   1  UNL1       -0.2980
     26 H          61.1542   89.0405   12.5922 H       1  UNL1        0.1536
     27 C          62.2946   87.7133   11.3141 C.ar    1  UNL1        0.0495
     28 C          62.5648   86.3368   11.8453 C.ar    1  UNL1        0.0169
     29 C          62.7968   85.1987   10.8962 C.ar    1  UNL1        0.0309
     30 C          62.7587   85.4371    9.4157 C.ar    1  UNL1        0.1402
     31 F          62.9907   84.2990    8.4666 F       1  UNL1       -0.2042
     32 C          62.4885   86.8136    8.8845 C.ar    1  UNL1        0.0309
     33 C          62.2565   87.9517    9.8336 C.ar    1  UNL1        0.0169
@<TRIPOS>BOND
     1     1     2    1
     2     2     3    1
     3     2     4    1
     4     4     5   ar
     5     5     6   ar
     6     6    14    1
     7    14    15   ar
     8    15    16   ar
     9    16    17   ar
    10    17    18    1
    11    17    19   ar
    12    19    20   ar
    13     6     7   ar
    14     7    25    1
    15    25    27    1
    16    27    28   ar
    17    28    29   ar
    18    29    30   ar
    19    30    31    1
    20    30    32   ar
    21    32    33   ar
    22     7     8   ar
    23     8     9    1
    24     9    10    1
    25    10    11    1
    26    11    12   am
    27    12    13    2
    28    12    21    1
    29    21    22    1
    30    11     2    1
    31     8     4   ar
    32    20    14   ar
    33    33    27   ar
    34    25    26    1
    35    22    23    1
    36    22    24    1
@<TRIPOS>MOLECULE
*****
 33 36 0 0 0
SMALL
GASTEIGER

@<TRIPOS>ATOM
      1 C          60.2764   89.2779    8.7561 C.3     1  UNL1        0.0276
      2 C          61.1637   88.8685    9.8942 C.3     1  UNL1        0.1109
      3 C          61.2586   90.3608   10.0135 C.3     1  UNL1        0.0276
      4 C          62.0839   88.9774   11.0737 C.ar    1  UNL1        0.1375
      5 N          62.6507   90.1621   11.7985 N.ar    1  UNL1       -0.2280
      6 C          63.5182   89.6531   12.9113 C.ar    1  UNL1        0.1125
      7 C          63.4875   88.1539   12.8743 C.ar    1  UNL1        0.1318
      8 N          62.6011   87.7363   11.7386 N.ar    1  UNL1       -0.3006
      9 C          62.1981   86.3862   11.2240 C.3     1  UNL1        0.1299
     10 C          61.2778   86.2773   10.0445 C.3     1  UNL1        0.1182
     11 N          60.7607   87.5185    9.3796 N.am    1  UNL1       -0.2732
     12 C          59.8404   87.4095    8.2000 C.2     1  UNL1        0.2418
     13 O          59.3232   88.6507    7.5351 O.2     1  UNL1       -0.2734
     14 C          64.2822   90.4955   13.8894 C.ar    1  UNL1        0.0205
     15 C          65.5704   91.1430   13.4758 C.ar    1  UNL1        0.0039
     16 C          66.3344   91.9854   14.4539 C.ar    1  UNL1        0.0297
     17 C          65.8102   92.1802   15.8457 C.ar    1  UNL1        0.1401
     18 F          66.5742   93.0226   16.8238 F       1  UNL1       -0.2042
     19 C          64.5220   91.5327   16.2594 C.ar    1  UNL1        0.0297
     20 C          63.7580   90.6904   15.2813 C.ar    1  UNL1        0.0039
     21 C          59.4373   86.0595    7.6854 C.3     1  UNL1        0.1517
     22 N          60.4002   85.2504    6.8678 N.3     1  UNL1       -0.3135
     23 H          60.5766   85.7248    5.9822 H       1  UNL1        0.1193
     24 H          60.0017   84.3291    6.6864 H       1  UNL1        0.1193
     25 N          64.2155   87.2338   13.8089 N.pl3   1  UNL1       -0.2980
     26 H          65.0344   87.5394   14.2620 H       1  UNL1        0.1536
     27 C          63.6958   85.8481   14.0532 C.ar    1  UNL1        0.0495
     28 C          63.8997   84.7780   13.0220 C.ar    1  UNL1        0.0169
     29 C          63.3801   83.3922   13.2663 C.ar    1  UNL1        0.0309
     30 C          62.6566   83.0766   14.5418 C.ar    1  UNL1        0.1402
     31 F          62.1369   81.6908   14.7861 F       1  UNL1       -0.2042
     32 C          62.4527   84.1467   15.5729 C.ar    1  UNL1        0.0309
     33 C          62.9723   85.5324   15.3287 C.ar    1  UNL1        0.0169
@<TRIPOS>BOND
     1     1     2    1
     2     2     3    1
     3     2     4    1
     4     4     5   ar
     5     5     6   ar
     6     6    14    1
     7    14    15   ar
     8    15    16   ar
     9    16    17   ar
    10    17    18    1
    11    17    19   ar
    12    19    20   ar
    13     6     7   ar
    14     7    25    1
    15    25    27    1
    16    27    28   ar
    17    28    29   ar
    18    29    30   ar
    19    30    31    1
    20    30    32   ar
    21    32    33   ar
    22     7     8   ar
    23     8     9    1
    24     9    10    1
    25    10    11    1
    26    11    12   am
    27    12    13    2
    28    12    21    1
    29    21    22    1
    30    11     2    1
    31     8     4   ar
    32    20    14   ar
    33    33    27   ar
    34    25    26    1
    35    22    23    1
    36    22    24    1
@<TRIPOS>MOLECULE
*****
 33 36 0 0 0
SMALL
GASTEIGER

@<TRIPOS>ATOM
      1 C          60.5307   89.7441    9.0091 C.3     1  UNL1        0.0276
      2 C          61.4585   89.3587   10.1230 C.3     1  UNL1        0.1109
      3 C          61.6406   90.8476   10.1356 C.3     1  UNL1        0.0276
      4 C          62.4496   89.4905   11.2412 C.ar    1  UNL1        0.1375
      5 N          63.1202   90.6848   11.8524 N.ar    1  UNL1       -0.2280
      6 C          64.0215   90.1998   12.9490 C.ar    1  UNL1        0.1125
      7 C          63.9078   88.7056   13.0154 C.ar    1  UNL1        0.1318
      8 N          62.9363   88.2672   11.9600 N.ar    1  UNL1       -0.3006
      9 C          62.4321   86.9122   11.5605 C.3     1  UNL1        0.1299
     10 C          61.4410   86.7804   10.4423 C.3     1  UNL1        0.1182
     11 N          60.9543   88.0037    9.7235 N.am    1  UNL1       -0.2732
     12 C          59.9632   87.8719    8.6052 C.2     1  UNL1        0.2418
     13 O          59.4764   89.0952    7.8865 O.2     1  UNL1       -0.2734
     14 C          64.8848   91.0582   13.8252 C.ar    1  UNL1        0.0205
     15 C          66.1575   91.6401   13.2852 C.ar    1  UNL1        0.0039
     16 C          67.0208   92.4985   14.1614 C.ar    1  UNL1        0.0297
     17 C          66.6115   92.7750   15.5777 C.ar    1  UNL1        0.1401
     18 F          67.4748   93.6334   16.4540 F       1  UNL1       -0.2042
     19 C          65.3389   92.1930   16.1178 C.ar    1  UNL1        0.0297
     20 C          64.4755   91.3346   15.2416 C.ar    1  UNL1        0.0039
     21 C          59.4589   86.5169    8.2058 C.3     1  UNL1        0.1517
     22 N          58.1481   86.3859    7.4883 N.3     1  UNL1       -0.3135
     23 H          57.3910   86.6739    8.1082 H       1  UNL1        0.1193
     24 H          58.0086   85.4147    7.2096 H       1  UNL1        0.1193
     25 N          64.6375   87.8074   13.9698 N.pl3   1  UNL1       -0.2980
     26 H          65.5087   87.4247   13.7171 H       1  UNL1        0.1536
     27 C          64.0400   87.4924   15.3090 C.ar    1  UNL1        0.0495
     28 C          63.5134   88.5987   16.1744 C.ar    1  UNL1        0.0169
     29 C          62.9158   88.2837   17.5136 C.ar    1  UNL1        0.0309
     30 C          62.8449   86.8623   17.9876 C.ar    1  UNL1        0.1402
     31 F          62.2474   86.5473   19.3269 F       1  UNL1       -0.2042
     32 C          63.3715   85.7560   17.1224 C.ar    1  UNL1        0.0309
     33 C          63.9691   86.0710   15.7831 C.ar    1  UNL1        0.0169
@<TRIPOS>BOND
     1     1     2    1
     2     2     3    1
     3     2     4    1
     4     4     5   ar
     5     5     6   ar
     6     6    14    1
     7    14    15   ar
     8    15    16   ar
     9    16    17   ar
    10    17    18    1
    11    17    19   ar
    12    19    20   ar
    13     6     7   ar
    14     7    25    1
    15    25    27    1
    16    27    28   ar
    17    28    29   ar
    18    29    30   ar
    19    30    31    1
    20    30    32   ar
    21    32    33   ar
    22     7     8   ar
    23     8     9    1
    24     9    10    1
    25    10    11    1
    26    11    12   am
    27    12    13    2
    28    12    21    1
    29    21    22    1
    30    11     2    1
    31     8     4   ar
    32    20    14   ar
    33    33    27   ar
    34    25    26    1
    35    22    23    1
    36    22    24    1
@<TRIPOS>MOLECULE
*****
 33 36 0 0 0
SMALL
GASTEIGER

@<TRIPOS>ATOM
      1 C          66.3424   94.1556   13.0584 C.3     1  UNL1        0.0276
      2 C          65.5992   92.8610   12.9114 C.3     1  UNL1        0.1109
      3 C          65.9285   92.8077   14.3739 C.3     1  UNL1        0.0276
      4 C          64.9703   91.5479   13.2722 C.ar    1  UNL1        0.1375
      5 N          64.8804   90.8011   14.5700 N.ar    1  UNL1       -0.2280
      6 C          64.1248   89.5293   14.3216 C.ar    1  UNL1        0.1125
      7 C          63.7477   89.4902   12.8703 C.ar    1  UNL1        0.1318
      8 N          64.2703   90.7377   12.2217 N.ar    1  UNL1       -0.3006
      9 C          64.1991   91.2406   10.8104 C.3     1  UNL1        0.1299
     10 C          64.8280   92.5537   10.4495 C.3     1  UNL1        0.1182
     11 N          65.5280   93.3639   11.5000 N.am    1  UNL1       -0.2732
     12 C          66.1569   94.6771   11.1391 C.2     1  UNL1        0.2418
     13 O          66.8569   95.4873   12.1896 O.2     1  UNL1       -0.2734
     14 C          63.8028   88.4808   15.3448 C.ar    1  UNL1        0.0205
     15 C          63.1180   88.8653   16.6227 C.ar    1  UNL1        0.0039
     16 C          62.7960   87.8168   17.6459 C.ar    1  UNL1        0.0297
     17 C          63.1588   86.3838   17.3912 C.ar    1  UNL1        0.1401
     18 F          62.8368   85.3353   18.4144 F       1  UNL1       -0.2042
     19 C          63.8436   85.9993   16.1132 C.ar    1  UNL1        0.0297
     20 C          64.1656   87.0478   15.0900 C.ar    1  UNL1        0.0039
     21 C          66.0857   95.1800    9.7278 C.3     1  UNL1        0.1517
     22 N          64.9984   96.1314    9.3245 N.3     1  UNL1       -0.3135
     23 H          64.0955   95.6606    9.3837 H       1  UNL1        0.1193
     24 H          65.1573   96.4429    8.3663 H       1  UNL1        0.1193
     25 N          62.9824   88.3957   12.1873 N.pl3   1  UNL1       -0.2980
     26 H          63.1146   87.4588   12.4596 H       1  UNL1        0.1536
     27 C          62.0159   88.7284   11.0897 C.ar    1  UNL1        0.0495
     28 C          61.9700   87.8856    9.8496 C.ar    1  UNL1        0.0169
     29 C          61.0034   88.2184    8.7519 C.ar    1  UNL1        0.0309
     30 C          60.0826   89.3940    8.8943 C.ar    1  UNL1        0.1402
     31 F          59.1160   89.7267    7.7966 F       1  UNL1       -0.2042
     32 C          60.1285   90.2367   10.1343 C.ar    1  UNL1        0.0309
     33 C          61.0951   89.9040   11.2320 C.ar    1  UNL1        0.0169
@<TRIPOS>BOND
     1     1     2    1
     2     2     3    1
     3     2     4    1
     4     4     5   ar
     5     5     6   ar
     6     6    14    1
     7    14    15   ar
     8    15    16   ar
     9    16    17   ar
    10    17    18    1
    11    17    19   ar
    12    19    20   ar
    13     6     7   ar
    14     7    25    1
    15    25    27    1
    16    27    28   ar
    17    28    29   ar
    18    29    30   ar
    19    30    31    1
    20    30    32   ar
    21    32    33   ar
    22     7     8   ar
    23     8     9    1
    24     9    10    1
    25    10    11    1
    26    11    12   am
    27    12    13    2
    28    12    21    1
    29    21    22    1
    30    11     2    1
    31     8     4   ar
    32    20    14   ar
    33    33    27   ar
    34    25    26    1
    35    22    23    1
    36    22    24    1
@<TRIPOS>MOLECULE
*****
 33 36 0 0 0
SMALL
GASTEIGER

@<TRIPOS>ATOM
      1 C          64.7819   89.3755   14.7380 C.3     1  UNL1        0.0276
      2 C          64.1084   88.4050   13.8135 C.3     1  UNL1        0.1109
      3 C          64.5041   87.4762   14.9229 C.3     1  UNL1        0.0276
      4 C          63.5724   87.1120   13.2742 C.ar    1  UNL1        0.1375
      5 N          63.5825   85.7153   13.8212 N.ar    1  UNL1       -0.2280
      6 C          62.8910   84.8250   12.8317 C.ar    1  UNL1        0.1125
      7 C          62.4535   85.6714   11.6732 C.ar    1  UNL1        0.1318
      8 N          62.8746   87.0849   11.9467 N.ar    1  UNL1       -0.3006
      9 C          62.7129   88.3507   11.1584 C.3     1  UNL1        0.1299
     10 C          63.2489   89.6437   11.6976 C.3     1  UNL1        0.1182
     11 N          63.9467   89.6708   13.0252 N.am    1  UNL1       -0.2732
     12 C          64.4827   90.9639   13.5644 C.2     1  UNL1        0.2418
     13 O          65.1805   90.9911   14.8919 O.2     1  UNL1       -0.2734
     14 C          62.6749   83.3476   12.9755 C.ar    1  UNL1        0.0205
     15 C          62.0355   82.8005   14.2172 C.ar    1  UNL1        0.0039
     16 C          61.8194   81.3231   14.3610 C.ar    1  UNL1        0.0297
     17 C          62.2427   80.3929   13.2631 C.ar    1  UNL1        0.1401
     18 F          62.0267   78.9155   13.4069 F       1  UNL1       -0.2042
     19 C          62.8822   80.9400   12.0215 C.ar    1  UNL1        0.0297
     20 C          63.0982   82.4173   11.8777 C.ar    1  UNL1        0.0039
     21 C          64.3209   92.2298   12.7761 C.3     1  UNL1        0.1517
     22 N          65.4692   93.1866   12.6498 N.3     1  UNL1       -0.3135
     23 H          65.6847   93.5819   13.5651 H       1  UNL1        0.1193
     24 H          65.2175   93.9368   12.0062 H       1  UNL1        0.1193
     25 N          61.7231   85.1891   10.4551 N.pl3   1  UNL1       -0.2980
     26 H          61.7439   84.2347   10.2144 H       1  UNL1        0.1536
     27 C          60.9610   86.1607    9.6037 C.ar    1  UNL1        0.0495
     28 C          60.9248   85.9853    8.1144 C.ar    1  UNL1        0.0169
     29 C          60.1627   86.9570    7.2630 C.ar    1  UNL1        0.0309
     30 C          59.4366   88.1042    7.9009 C.ar    1  UNL1        0.1402
     31 F          58.6745   89.0758    7.0494 F       1  UNL1       -0.2042
     32 C          59.4727   88.2796    9.3901 C.ar    1  UNL1        0.0309
     33 C          60.2349   87.3079   10.2415 C.ar    1  UNL1        0.0169
@<TRIPOS>BOND
     1     1     2    1
     2     2     3    1
     3     2     4    1
     4     4     5   ar
     5     5     6   ar
     6     6    14    1
     7    14    15   ar
     8    15    16   ar
     9    16    17   ar
    10    17    18    1
    11    17    19   ar
    12    19    20   ar
    13     6     7   ar
    14     7    25    1
    15    25    27    1
    16    27    28   ar
    17    28    29   ar
    18    29    30   ar
    19    30    31    1
    20    30    32   ar
    21    32    33   ar
    22     7     8   ar
    23     8     9    1
    24     9    10    1
    25    10    11    1
    26    11    12   am
    27    12    13    2
    28    12    21    1
    29    21    22    1
    30    11     2    1
    31     8     4   ar
    32    20    14   ar
    33    33    27   ar
    34    25    26    1
    35    22    23    1
    36    22    24    1
@<TRIPOS>MOLECULE
*****
 33 36 0 0 0
SMALL
GASTEIGER

@<TRIPOS>ATOM
      1 C          62.1802   86.9265   11.8642 C.3     1  UNL1        0.0276
      2 C          62.7334   88.3205   11.8913 C.3     1  UNL1        0.1109
      3 C          63.5546   87.6932   12.9786 C.3     1  UNL1        0.0276
      4 C          63.5718   89.4967   12.2961 C.ar    1  UNL1        0.1375
      5 N          64.6426   89.6562   13.3343 N.ar    1  UNL1       -0.2280
      6 C          65.1295   91.0740   13.2841 C.ar    1  UNL1        0.1125
      7 C          64.3596   91.7908   12.2147 C.ar    1  UNL1        0.1318
      8 N          63.3969   90.8160   11.6041 N.ar    1  UNL1       -0.3006
      9 C          62.3837   90.9592   10.5074 C.3     1  UNL1        0.1299
     10 C          61.5453   89.7831   10.1027 C.3     1  UNL1        0.1182
     11 N          61.7202   88.4638   10.7946 N.am    1  UNL1       -0.2732
     12 C          60.8818   87.2876   10.3898 C.2     1  UNL1        0.2418
     13 O          61.0566   85.9683   11.0818 O.2     1  UNL1       -0.2734
     14 C          66.1986   91.6704   14.1510 C.ar    1  UNL1        0.0205
     15 C          65.8596   92.1669   15.5252 C.ar    1  UNL1        0.0039
     16 C          66.9287   92.7632   16.3921 C.ar    1  UNL1        0.0297
     17 C          68.3367   92.8631   15.8847 C.ar    1  UNL1        0.1401
     18 F          69.4057   93.4594   16.7516 F       1  UNL1       -0.2042
     19 C          68.6756   92.3666   14.5105 C.ar    1  UNL1        0.0297
     20 C          67.6066   91.7702   13.6436 C.ar    1  UNL1        0.0039
     21 C          59.8685   87.4308    9.2931 C.3     1  UNL1        0.1517
     22 N          59.7054   86.3407    8.2757 N.3     1  UNL1       -0.3135
     23 H          60.5545   86.2689    7.7152 H       1  UNL1        0.1193
     24 H          58.9147   86.5576    7.6688 H       1  UNL1        0.1193
     25 N          64.5237   93.2299   11.8245 N.pl3   1  UNL1       -0.2980
     26 H          63.9393   93.9167   12.2195 H       1  UNL1        0.1536
     27 C          65.5780   93.6225   10.8325 C.ar    1  UNL1        0.0495
     28 C          65.6245   95.0253   10.3031 C.ar    1  UNL1        0.0169
     29 C          66.6788   95.4180    9.3111 C.ar    1  UNL1        0.0309
     30 C          67.6867   94.4079    8.8484 C.ar    1  UNL1        0.1402
     31 F          68.7411   94.8006    7.8564 F       1  UNL1       -0.2042
     32 C          67.6402   93.0052    9.3778 C.ar    1  UNL1        0.0309
     33 C          66.5859   92.6125   10.3699 C.ar    1  UNL1        0.0169
@<TRIPOS>BOND
     1     1     2    1
     2     2     3    1
     3     2     4    1
     4     4     5   ar
     5     5     6   ar
     6     6    14    1
     7    14    15   ar
     8    15    16   ar
     9    16    17   ar
    10    17    18    1
    11    17    19   ar
    12    19    20   ar
    13     6     7   ar
    14     7    25    1
    15    25    27    1
    16    27    28   ar
    17    28    29   ar
    18    29    30   ar
    19    30    31    1
    20    30    32   ar
    21    32    33   ar
    22     7     8   ar
    23     8     9    1
    24     9    10    1
    25    10    11    1
    26    11    12   am
    27    12    13    2
    28    12    21    1
    29    21    22    1
    30    11     2    1
    31     8     4   ar
    32    20    14   ar
    33    33    27   ar
    34    25    26    1
    35    22    23    1
    36    22    24    1
@<TRIPOS>MOLECULE
*****
 33 36 0 0 0
SMALL
GASTEIGER

@<TRIPOS>ATOM
      1 C          65.3290   89.7871   14.5340 C.3     1  UNL1        0.0276
      2 C          64.4043   88.9018   13.7521 C.3     1  UNL1        0.1109
      3 C          64.9840   87.8974   14.7036 C.3     1  UNL1        0.0276
      4 C          63.6810   87.6677   13.3007 C.ar    1  UNL1        0.1375
      5 N          63.7292   86.2457   13.7757 N.ar    1  UNL1       -0.2280
      6 C          62.7771   85.4446   12.9380 C.ar    1  UNL1        0.1125
      7 C          62.1406   86.3715   11.9451 C.ar    1  UNL1        0.1318
      8 N          62.6992   87.7454   12.1693 N.ar    1  UNL1       -0.3006
      9 C          62.4408   89.0572   11.4893 C.3     1  UNL1        0.1299
     10 C          63.1641   90.2913   11.9408 C.3     1  UNL1        0.1182
     11 N          64.1459   90.2135   13.0722 N.am    1  UNL1       -0.2732
     12 C          64.8692   91.4477   13.5236 C.2     1  UNL1        0.2418
     13 O          65.8510   91.3700   14.6550 O.2     1  UNL1       -0.2734
     14 C          62.5088   83.9747   13.0699 C.ar    1  UNL1        0.0205
     15 C          62.0209   83.4154   14.3734 C.ar    1  UNL1        0.0039
     16 C          61.7525   81.9455   14.5053 C.ar    1  UNL1        0.0297
     17 C          61.9720   81.0349   13.3337 C.ar    1  UNL1        0.1401
     18 F          61.7037   79.5650   13.4656 F       1  UNL1       -0.2042
     19 C          62.4599   81.5942   12.0302 C.ar    1  UNL1        0.0297
     20 C          62.7283   83.0641   11.8983 C.ar    1  UNL1        0.0039
     21 C          64.6107   92.7595   12.8437 C.3     1  UNL1        0.1517
     22 N          65.7470   93.5236   12.2313 N.3     1  UNL1       -0.3135
     23 H          66.3827   93.8345   12.9659 H       1  UNL1        0.1193
     24 H          65.3815   94.3346   11.7322 H       1  UNL1        0.1193
     25 N          61.1239   85.9912   10.9099 N.pl3   1  UNL1       -0.2980
     26 H          60.1666   85.9845   11.1393 H       1  UNL1        0.1536
     27 C          61.5658   85.6212    9.5251 C.ar    1  UNL1        0.0495
     28 C          62.9624   85.1266    9.2905 C.ar    1  UNL1        0.0169
     29 C          63.4044   84.7566    7.9056 C.ar    1  UNL1        0.0309
     30 C          62.4497   84.8812    6.7554 C.ar    1  UNL1        0.1402
     31 F          62.8917   84.5111    5.3705 F       1  UNL1       -0.2042
     32 C          61.0532   85.3757    6.9899 C.ar    1  UNL1        0.0309
     33 C          60.6112   85.7457    8.3748 C.ar    1  UNL1        0.0169
@<TRIPOS>BOND
     1     1     2    1
     2     2     3    1
     3     2     4    1
     4     4     5   ar
     5     5     6   ar
     6     6    14    1
     7    14    15   ar
     8    15    16   ar
     9    16    17   ar
    10    17    18    1
    11    17    19   ar
    12    19    20   ar
    13     6     7   ar
    14     7    25    1
    15    25    27    1
    16    27    28   ar
    17    28    29   ar
    18    29    30   ar
    19    30    31    1
    20    30    32   ar
    21    32    33   ar
    22     7     8   ar
    23     8     9    1
    24     9    10    1
    25    10    11    1
    26    11    12   am
    27    12    13    2
    28    12    21    1
    29    21    22    1
    30    11     2    1
    31     8     4   ar
    32    20    14   ar
    33    33    27   ar
    34    25    26    1
    35    22    23    1
    36    22    24    1
