@<TRIPOS>MOLECULE
*****
 29 31 0 0 0
SMALL
GASTEIGER

@<TRIPOS>ATOM
      1 C          65.3071   91.9346   12.4173 C.ar    1  UNL1       -0.0004
      2 C          65.0402   90.9996   13.5594 C.ar    1  UNL1       -0.0024
      3 C          63.9368   89.9885   13.4586 C.ar    1  UNL1       -0.0002
      4 C          63.1003   89.9125   12.2159 C.ar    1  UNL1        0.0030
      5 C          61.9969   88.9013   12.1152 C.ar    1  UNL1        0.0369
      6 C          61.1604   88.8253   10.8724 C.ar    1  UNL1        0.1386
      7 C          61.4273   89.7605    9.7303 C.ar    1  UNL1        0.0369
      8 C          62.5307   90.7716    9.8310 C.ar    1  UNL1        0.0031
      9 C          63.3672   90.8476   11.0738 C.ar    1  UNL1       -0.0001
     10 C          64.4706   91.8586   11.1745 C.ar    1  UNL1       -0.0024
     11 C          66.4106   92.9458   12.5180 C.3     1  UNL1        0.1240
     12 N          67.2921   92.9756   13.7313 N.ar    1  UNL1       -0.3045
     13 C          67.1192   93.8673   14.9250 C.ar    1  UNL1        0.0983
     14 C          68.2215   93.5618   15.8954 C.ar    1  UNL1        0.1193
     15 N          69.0756   92.4812   15.3014 N.ar    1  UNL1       -0.2223
     16 C          68.5012   92.1190   13.9639 C.ar    1  UNL1        0.1788
     17 C          66.0072   95.2890   11.4707 C.3     1  UNL1        0.0197
     18 C          66.6325   93.9270   11.4054 C.3     1  UNL1        0.0827
     19 N          67.4796   93.5464   10.2275 N.3     1  UNL1       -0.2696
     20 C          68.1145   92.1886   10.1678 C.3     1  UNL1        0.0897
     21 C          67.6919   94.5234    9.1093 C.3     1  UNL1        0.0897
     22 O          60.0570   87.8143   10.7717 O.3     1  UNL1       -0.4751
     23 C          59.5441   87.3953    9.4257 C.3     1  UNL1        0.2103
     24 C          60.3623   86.4814    8.5626 C.3     1  UNL1        0.0724
     25 C          61.1193   86.0173    9.7715 C.3     1  UNL1        0.0093
     26 C          59.6053   86.9454    7.3536 C.3     1  UNL1        0.0093
     27 C          61.1805   85.5674    7.6994 C.2     1  UNL1        0.0532
     28 O          62.6436   85.3853    7.9758 O.co2   1  UNL1       -0.5491
     29 O          60.5358   84.8355    6.5598 O.co2   1  UNL1       -0.5491
@<TRIPOS>UNITY_ATOM_ATTR
28 1
charge -1
@<TRIPOS>BOND
     1    18    17    1
     2    18    11    1
     3    11     1    1
     4     1     2   ar
     5     2     3   ar
     6     3     4   ar
     7     4     5   ar
     8     5     6   ar
     9     6    22    1
    10    22    23    1
    11    23    24    1
    12    24    25    1
    13    24    26    1
    14    24    27    1
    15    27    28   ar
    16    27    29   ar
    17     6     7   ar
    18     7     8   ar
    19     8     9   ar
    20     9    10   ar
    21    11    12    1
    22    12    13   ar
    23    13    14   ar
    24    14    15   ar
    25    15    16   ar
    26    18    19    1
    27    19    20    1
    28    19    21    1
    29    10     1   ar
    30    16    12   ar
    31     9     4   ar
@<TRIPOS>MOLECULE
*****
 29 31 0 0 0
SMALL
GASTEIGER

@<TRIPOS>ATOM
      1 C          63.5079   85.6132   12.8834 C.ar    1  UNL1       -0.0004
      2 C          64.1901   85.5533   14.2179 C.ar    1  UNL1       -0.0024
      3 C          64.5427   86.8212   14.9375 C.ar    1  UNL1       -0.0002
      4 C          64.2130   88.1491   14.3227 C.ar    1  UNL1        0.0030
      5 C          64.5657   89.4171   15.0425 C.ar    1  UNL1        0.0369
      6 C          64.2360   90.7450   14.4276 C.ar    1  UNL1        0.1386
      7 C          63.5538   90.8049   13.0931 C.ar    1  UNL1        0.0369
      8 C          63.2012   89.5370   12.3734 C.ar    1  UNL1        0.0031
      9 C          63.5308   88.2091   12.9882 C.ar    1  UNL1       -0.0001
     10 C          63.1783   86.9412   12.2685 C.ar    1  UNL1       -0.0024
     11 C          63.1553   84.3453   12.1636 C.3     1  UNL1        0.1240
     12 N          62.6512   83.1610   12.9339 N.ar    1  UNL1       -0.3045
     13 C          62.3813   81.7955   12.3748 C.ar    1  UNL1        0.0983
     14 C          61.8919   80.9248   13.4939 C.ar    1  UNL1        0.1193
     15 N          61.8592   81.7522   14.7446 N.ar    1  UNL1       -0.2223
     16 C          62.3285   83.1342   14.3985 C.ar    1  UNL1        0.1788
     17 C          64.2610   83.2735   10.0710 C.3     1  UNL1        0.0197
     18 C          63.3067   84.2616   10.6737 C.3     1  UNL1        0.0827
     19 N          62.5039   85.1661    9.7862 N.3     1  UNL1       -0.2696
     20 C          62.9940   85.4908    8.4062 C.3     1  UNL1        0.0897
     21 C          61.2112   85.7458   10.2788 C.3     1  UNL1        0.0897
     22 O          64.5886   92.0129   15.1473 O.3     1  UNL1       -0.4751
     23 C          66.0145   92.4761   15.1960 C.3     1  UNL1        0.2103
     24 C          66.8818   92.3633   13.9774 C.3     1  UNL1        0.0724
     25 C          67.7103   91.3181   14.6637 C.3     1  UNL1        0.0093
     26 C          66.0533   93.4085   13.2911 C.3     1  UNL1        0.0093
     27 C          67.7490   92.2505   12.7588 C.2     1  UNL1        0.0532
     28 O          67.2480   92.7430   11.4334 O.co2   1  UNL1       -0.5491
     29 O          69.1173   91.6452   12.8654 O.co2   1  UNL1       -0.5491
@<TRIPOS>UNITY_ATOM_ATTR
28 1
charge -1
@<TRIPOS>BOND
     1    18    17    1
     2    18    11    1
     3    11     1    1
     4     1     2   ar
     5     2     3   ar
     6     3     4   ar
     7     4     5   ar
     8     5     6   ar
     9     6    22    1
    10    22    23    1
    11    23    24    1
    12    24    25    1
    13    24    26    1
    14    24    27    1
    15    27    28   ar
    16    27    29   ar
    17     6     7   ar
    18     7     8   ar
    19     8     9   ar
    20     9    10   ar
    21    11    12    1
    22    12    13   ar
    23    13    14   ar
    24    14    15   ar
    25    15    16   ar
    26    18    19    1
    27    19    20    1
    28    19    21    1
    29    10     1   ar
    30    16    12   ar
    31     9     4   ar
@<TRIPOS>MOLECULE
*****
 29 31 0 0 0
SMALL
GASTEIGER

@<TRIPOS>ATOM
      1 C          65.2447   92.0758   12.3726 C.ar    1  UNL1       -0.0004
      2 C          64.9683   91.1175   13.4930 C.ar    1  UNL1       -0.0024
      3 C          63.8851   90.0897   13.3506 C.ar    1  UNL1       -0.0002
      4 C          63.0784   90.0201   12.0879 C.ar    1  UNL1        0.0030
      5 C          61.9952   88.9922   11.9456 C.ar    1  UNL1        0.0369
      6 C          61.1885   88.9227   10.6829 C.ar    1  UNL1        0.1386
      7 C          61.4650   89.8810    9.5626 C.ar    1  UNL1        0.0369
      8 C          62.5481   90.9089    9.7049 C.ar    1  UNL1        0.0031
      9 C          63.3548   90.9784   10.9676 C.ar    1  UNL1       -0.0001
     10 C          64.4380   92.0062   11.1099 C.ar    1  UNL1       -0.0024
     11 C          66.3279   93.1037   12.5149 C.3     1  UNL1        0.1240
     12 N          66.5750   94.0903   11.4124 N.ar    1  UNL1       -0.3045
     13 C          67.2341   93.7964   10.0975 C.ar    1  UNL1        0.0983
     14 C          67.2729   95.0685    9.3037 C.ar    1  UNL1        0.1193
     15 N          66.6378   96.1488   10.1281 N.ar    1  UNL1       -0.2223
     16 C          66.2065   95.5442   11.4313 C.ar    1  UNL1        0.1788
     17 C          66.7029   93.9376   14.9468 C.3     1  UNL1        0.0197
     18 C          67.1638   93.1449   13.7596 C.3     1  UNL1        0.0827
     19 N          68.4608   92.3935   13.8173 N.3     1  UNL1       -0.2696
     20 C          69.3058   92.4498   15.0555 C.3     1  UNL1        0.0897
     21 C          68.9127   91.5858   12.6369 C.3     1  UNL1        0.0897
     22 O          60.1054   87.8948   10.5406 O.3     1  UNL1       -0.4751
     23 C          60.4615   86.4445   10.3998 C.3     1  UNL1        0.2103
     24 C          61.2541   85.9785    9.2147 C.3     1  UNL1        0.0724
     25 C          62.3951   85.6184   10.1194 C.3     1  UNL1        0.0093
     26 C          60.1132   86.3385    8.3100 C.3     1  UNL1        0.0093
     27 C          62.0468   85.5125    8.0296 C.2     1  UNL1        0.0532
     28 O          61.3481   85.1743    6.7460 O.co2   1  UNL1       -0.5491
     29 O          63.5381   85.3846    8.1280 O.co2   1  UNL1       -0.5491
@<TRIPOS>UNITY_ATOM_ATTR
28 1
charge -1
@<TRIPOS>BOND
     1    18    17    1
     2    18    11    1
     3    11     1    1
     4     1     2   ar
     5     2     3   ar
     6     3     4   ar
     7     4     5   ar
     8     5     6   ar
     9     6    22    1
    10    22    23    1
    11    23    24    1
    12    24    25    1
    13    24    26    1
    14    24    27    1
    15    27    28   ar
    16    27    29   ar
    17     6     7   ar
    18     7     8   ar
    19     8     9   ar
    20     9    10   ar
    21    11    12    1
    22    12    13   ar
    23    13    14   ar
    24    14    15   ar
    25    15    16   ar
    26    18    19    1
    27    19    20    1
    28    19    21    1
    29    10     1   ar
    30    16    12   ar
    31     9     4   ar
@<TRIPOS>MOLECULE
*****
 29 31 0 0 0
SMALL
GASTEIGER

@<TRIPOS>ATOM
      1 C          62.4103   88.2177   10.4740 C.ar    1  UNL1       -0.0004
      2 C          62.3907   89.6467   10.0184 C.ar    1  UNL1       -0.0024
      3 C          62.8910   90.7304   10.9268 C.ar    1  UNL1       -0.0002
      4 C          63.4108   90.3851   12.2909 C.ar    1  UNL1        0.0030
      5 C          63.9111   91.4689   13.1993 C.ar    1  UNL1        0.0369
      6 C          64.4309   91.1237   14.5633 C.ar    1  UNL1        0.1386
      7 C          64.4504   89.6946   15.0189 C.ar    1  UNL1        0.0369
      8 C          63.9502   88.6109   14.1105 C.ar    1  UNL1        0.0031
      9 C          63.4304   88.9562   12.7465 C.ar    1  UNL1       -0.0001
     10 C          62.9301   87.8725   11.8381 C.ar    1  UNL1       -0.0024
     11 C          61.9100   87.1339    9.5656 C.3     1  UNL1        0.1240
     12 N          60.6605   87.3453    8.7631 N.ar    1  UNL1       -0.3045
     13 C          60.1124   88.6684    8.3170 C.ar    1  UNL1        0.0983
     14 C          58.8528   88.4116    7.5440 C.ar    1  UNL1        0.1193
     15 N          58.6224   86.9297    7.5124 N.ar    1  UNL1       -0.2223
     16 C          59.7396   86.2708    8.2658 C.ar    1  UNL1        0.1788
     17 C          63.3575   85.4786    8.1819 C.3     1  UNL1        0.0197
     18 C          62.6592   85.8388    9.4597 C.3     1  UNL1        0.0827
     19 N          62.7103   84.9038   10.6315 N.3     1  UNL1       -0.2696
     20 C          63.6403   83.7270   10.6121 C.3     1  UNL1        0.0897
     21 C          61.8314   85.1456   11.8227 C.3     1  UNL1        0.0897
     22 O          64.9312   92.2074   15.4718 O.3     1  UNL1       -0.4751
     23 C          66.3267   92.7342   15.3132 C.3     1  UNL1        0.2103
     24 C          67.0545   92.5510   14.0145 C.3     1  UNL1        0.0724
     25 C          67.6908   91.3015   14.5474 C.3     1  UNL1        0.0093
     26 C          66.4182   93.8004   13.4817 C.3     1  UNL1        0.0093
     27 C          67.7823   92.3678   12.7158 C.2     1  UNL1        0.0532
     28 O          69.1023   91.6556   12.6897 O.co2   1  UNL1       -0.5491
     29 O          67.1902   92.8967   11.4432 O.co2   1  UNL1       -0.5491
@<TRIPOS>UNITY_ATOM_ATTR
28 1
charge -1
@<TRIPOS>BOND
     1    18    17    1
     2    18    11    1
     3    11     1    1
     4     1     2   ar
     5     2     3   ar
     6     3     4   ar
     7     4     5   ar
     8     5     6   ar
     9     6    22    1
    10    22    23    1
    11    23    24    1
    12    24    25    1
    13    24    26    1
    14    24    27    1
    15    27    28   ar
    16    27    29   ar
    17     6     7   ar
    18     7     8   ar
    19     8     9   ar
    20     9    10   ar
    21    11    12    1
    22    12    13   ar
    23    13    14   ar
    24    14    15   ar
    25    15    16   ar
    26    18    19    1
    27    19    20    1
    28    19    21    1
    29    10     1   ar
    30    16    12   ar
    31     9     4   ar
@<TRIPOS>MOLECULE
*****
 29 31 0 0 0
SMALL
GASTEIGER

@<TRIPOS>ATOM
      1 C          62.3748   88.0927   10.7646 C.ar    1  UNL1       -0.0004
      2 C          62.3627   89.4380   10.1013 C.ar    1  UNL1       -0.0024
      3 C          62.9626   90.6232   10.7981 C.ar    1  UNL1       -0.0002
      4 C          63.5745   90.4630   12.1582 C.ar    1  UNL1        0.0030
      5 C          64.1744   91.6482   12.8550 C.ar    1  UNL1        0.0369
      6 C          64.7863   91.4881   14.2151 C.ar    1  UNL1        0.1386
      7 C          64.7983   90.1427   14.8784 C.ar    1  UNL1        0.0369
      8 C          64.1985   88.9576   14.1816 C.ar    1  UNL1        0.0031
      9 C          63.5865   89.1177   12.8215 C.ar    1  UNL1       -0.0001
     10 C          62.9867   87.9326   12.1247 C.ar    1  UNL1       -0.0024
     11 C          61.7749   86.9075   10.0678 C.3     1  UNL1        0.1240
     12 N          60.6828   87.1044    9.0585 N.ar    1  UNL1       -0.3045
     13 C          60.0485   88.4127    8.6897 C.ar    1  UNL1        0.0983
     14 C          59.0070   88.1444    7.6441 C.ar    1  UNL1        0.1193
     15 N          58.9976   86.6703    7.3667 N.ar    1  UNL1       -0.2223
     16 C          60.0333   86.0276    8.2409 C.ar    1  UNL1        0.1788
     17 C          61.8951   84.8725   11.6785 C.3     1  UNL1        0.0197
     18 C          62.2671   85.5255   10.3803 C.3     1  UNL1        0.0827
     19 N          63.1314   84.7964    9.3946 N.3     1  UNL1       -0.2696
     20 C          63.2467   85.2959    7.9849 C.3     1  UNL1        0.0897
     21 C          63.8802   83.5678    9.8186 C.3     1  UNL1        0.0897
     22 O          65.3861   92.6732   14.9119 O.3     1  UNL1       -0.4751
     23 C          66.5392   93.4042   14.2905 C.3     1  UNL1        0.2103
     24 C          66.9950   93.0479   12.9066 C.3     1  UNL1        0.0724
     25 C          67.7881   91.9027   13.4626 C.3     1  UNL1        0.0093
     26 C          66.2018   94.1932   12.3505 C.3     1  UNL1        0.0093
     27 C          67.4507   92.6916   11.5226 C.2     1  UNL1        0.0532
     28 O          68.7200   91.9165   11.3273 O.co2   1  UNL1       -0.5491
     29 O          66.6372   93.1104   10.3340 O.co2   1  UNL1       -0.5491
@<TRIPOS>UNITY_ATOM_ATTR
28 1
charge -1
@<TRIPOS>BOND
     1    18    17    1
     2    18    11    1
     3    11     1    1
     4     1     2   ar
     5     2     3   ar
     6     3     4   ar
     7     4     5   ar
     8     5     6   ar
     9     6    22    1
    10    22    23    1
    11    23    24    1
    12    24    25    1
    13    24    26    1
    14    24    27    1
    15    27    28   ar
    16    27    29   ar
    17     6     7   ar
    18     7     8   ar
    19     8     9   ar
    20     9    10   ar
    21    11    12    1
    22    12    13   ar
    23    13    14   ar
    24    14    15   ar
    25    15    16   ar
    26    18    19    1
    27    19    20    1
    28    19    21    1
    29    10     1   ar
    30    16    12   ar
    31     9     4   ar
@<TRIPOS>MOLECULE
*****
 29 31 0 0 0
SMALL
GASTEIGER

@<TRIPOS>ATOM
      1 C          62.5277   87.7944   10.7521 C.ar    1  UNL1       -0.0004
      2 C          62.4744   89.1653   10.1459 C.ar    1  UNL1       -0.0024
      3 C          62.9462   90.3521   10.9326 C.ar    1  UNL1       -0.0002
      4 C          63.4713   90.1679   12.3255 C.ar    1  UNL1        0.0030
      5 C          63.9431   91.3548   13.1122 C.ar    1  UNL1        0.0369
      6 C          64.4682   91.1706   14.5052 C.ar    1  UNL1        0.1386
      7 C          64.5215   89.7995   15.1114 C.ar    1  UNL1        0.0369
      8 C          64.0498   88.6128   14.3247 C.ar    1  UNL1        0.0031
      9 C          63.5246   88.7970   12.9318 C.ar    1  UNL1       -0.0001
     10 C          63.0529   87.6102   12.1451 C.ar    1  UNL1       -0.0024
     11 C          62.0559   86.6075    9.9654 C.3     1  UNL1        0.1240
     12 N          62.6430   85.2523   10.2279 N.ar    1  UNL1       -0.3045
     13 C          62.4474   84.4319   11.4683 C.ar    1  UNL1        0.0983
     14 C          63.2122   83.1521   11.3030 C.ar    1  UNL1        0.1193
     15 N          63.8805   83.1816    9.9604 N.ar    1  UNL1       -0.2223
     16 C          63.5287   84.4796    9.2960 C.ar    1  UNL1        0.1788
     17 C          60.9699   85.8645    7.7252 C.3     1  UNL1        0.0197
     18 C          60.9972   86.7758    8.9163 C.3     1  UNL1        0.0827
     19 N          59.9656   87.8555    9.0583 N.3     1  UNL1       -0.2696
     20 C          59.3667   88.1485   10.4021 C.3     1  UNL1        0.0897
     21 C          59.5330   88.6422    7.8567 C.3     1  UNL1        0.0897
     22 O          64.9400   92.3574   15.2919 O.3     1  UNL1       -0.4751
     23 C          66.3326   92.8802   15.0981 C.3     1  UNL1        0.2103
     24 C          67.0613   92.6151   13.8141 C.3     1  UNL1        0.0724
     25 C          66.3819   93.7952   13.1849 C.3     1  UNL1        0.0093
     26 C          67.7407   91.4351   14.4433 C.3     1  UNL1        0.0093
     27 C          67.7900   92.3501   12.5301 C.2     1  UNL1        0.0532
     28 O          67.2247   92.8435   11.2312 O.co2   1  UNL1       -0.5491
     29 O          69.0841   91.5916   12.5450 O.co2   1  UNL1       -0.5491
@<TRIPOS>UNITY_ATOM_ATTR
28 1
charge -1
@<TRIPOS>BOND
     1    18    17    1
     2    18    11    1
     3    11     1    1
     4     1     2   ar
     5     2     3   ar
     6     3     4   ar
     7     4     5   ar
     8     5     6   ar
     9     6    22    1
    10    22    23    1
    11    23    24    1
    12    24    25    1
    13    24    26    1
    14    24    27    1
    15    27    28   ar
    16    27    29   ar
    17     6     7   ar
    18     7     8   ar
    19     8     9   ar
    20     9    10   ar
    21    11    12    1
    22    12    13   ar
    23    13    14   ar
    24    14    15   ar
    25    15    16   ar
    26    18    19    1
    27    19    20    1
    28    19    21    1
    29    10     1   ar
    30    16    12   ar
    31     9     4   ar
@<TRIPOS>MOLECULE
*****
 29 31 0 0 0
SMALL
GASTEIGER

@<TRIPOS>ATOM
      1 C          63.2737   86.2870   12.5821 C.ar    1  UNL1       -0.0004
      2 C          63.9741   86.0343   13.8842 C.ar    1  UNL1       -0.0024
      3 C          64.4575   87.1879   14.7120 C.ar    1  UNL1       -0.0002
      4 C          64.2404   88.5943   14.2377 C.ar    1  UNL1        0.0030
      5 C          64.7239   89.7480   15.0657 C.ar    1  UNL1        0.0369
      6 C          64.5069   91.1544   14.5914 C.ar    1  UNL1        0.1386
      7 C          63.8064   91.4071   13.2892 C.ar    1  UNL1        0.0369
      8 C          63.3230   90.2535   12.4614 C.ar    1  UNL1        0.0031
      9 C          63.5401   88.8471   12.9356 C.ar    1  UNL1       -0.0001
     10 C          63.0567   87.6934   12.1078 C.ar    1  UNL1       -0.0024
     11 C          62.7903   85.1333   11.7541 C.3     1  UNL1        0.1240
     12 N          62.3045   85.3663   10.3542 N.ar    1  UNL1       -0.3045
     13 C          63.0522   85.0395    9.0956 C.ar    1  UNL1        0.0983
     14 C          62.1955   85.4383    7.9307 C.ar    1  UNL1        0.1193
     15 N          60.9184   86.0116    8.4693 N.ar    1  UNL1       -0.2223
     16 C          60.9857   85.9671    9.9671 C.ar    1  UNL1        0.1788
     17 C          62.1451   83.4816   13.6530 C.3     1  UNL1        0.0197
     18 C          62.7926   83.7467   12.3261 C.3     1  UNL1        0.0827
     19 N          63.4426   82.6251   11.5714 N.3     1  UNL1       -0.2696
     20 C          64.7067   82.8720   10.8025 C.3     1  UNL1        0.0897
     21 C          62.8284   81.2567   11.5854 C.3     1  UNL1        0.0897
     22 O          64.9902   92.3081   15.4192 O.3     1  UNL1       -0.4751
     23 C          66.3851   92.8292   15.2375 C.3     1  UNL1        0.2103
     24 C          67.1075   92.6029   13.9426 C.3     1  UNL1        0.0724
     25 C          67.8567   91.4597   14.5604 C.3     1  UNL1        0.0093
     26 C          66.3583   93.7461   13.3249 C.3     1  UNL1        0.0093
     27 C          67.8299   92.3766   12.6477 C.2     1  UNL1        0.0532
     28 O          67.2709   92.9299   11.3704 O.co2   1  UNL1       -0.5491
     29 O          69.1114   91.5971   12.6301 O.co2   1  UNL1       -0.5491
@<TRIPOS>UNITY_ATOM_ATTR
28 1
charge -1
@<TRIPOS>BOND
     1    18    17    1
     2    18    11    1
     3    11     1    1
     4     1     2   ar
     5     2     3   ar
     6     3     4   ar
     7     4     5   ar
     8     5     6   ar
     9     6    22    1
    10    22    23    1
    11    23    24    1
    12    24    25    1
    13    24    26    1
    14    24    27    1
    15    27    28   ar
    16    27    29   ar
    17     6     7   ar
    18     7     8   ar
    19     8     9   ar
    20     9    10   ar
    21    11    12    1
    22    12    13   ar
    23    13    14   ar
    24    14    15   ar
    25    15    16   ar
    26    18    19    1
    27    19    20    1
    28    19    21    1
    29    10     1   ar
    30    16    12   ar
    31     9     4   ar
@<TRIPOS>MOLECULE
*****
 29 31 0 0 0
SMALL
GASTEIGER

@<TRIPOS>ATOM
      1 C          63.0742   85.8183   12.9149 C.ar    1  UNL1       -0.0004
      2 C          62.4316   86.3970   11.6893 C.ar    1  UNL1       -0.0024
      3 C          62.5702   87.8602   11.3897 C.ar    1  UNL1       -0.0002
      4 C          63.3513   88.7447   12.3158 C.ar    1  UNL1        0.0030
      5 C          63.4898   90.2080   12.0161 C.ar    1  UNL1        0.0369
      6 C          64.2709   91.0925   12.9422 C.ar    1  UNL1        0.1386
      7 C          64.9135   90.5137   14.1678 C.ar    1  UNL1        0.0369
      8 C          64.7750   89.0505   14.4674 C.ar    1  UNL1        0.0031
      9 C          63.9939   88.1660   13.5414 C.ar    1  UNL1       -0.0001
     10 C          63.8553   86.7028   13.8409 C.ar    1  UNL1       -0.0024
     11 C          62.9357   84.3550   13.2145 C.3     1  UNL1        0.1240
     12 N          63.2500   83.3397   12.1561 N.ar    1  UNL1       -0.3045
     13 C          64.3535   83.4334   11.1444 C.ar    1  UNL1        0.0983
     14 C          64.3016   82.2040   10.2865 C.ar    1  UNL1        0.1193
     15 N          63.1660   81.3505   10.7680 N.ar    1  UNL1       -0.2223
     16 C          62.5161   82.0524   11.9235 C.ar    1  UNL1        0.1788
     17 C          62.0935   82.4763   14.7993 C.3     1  UNL1        0.0197
     18 C          62.4828   83.9071   14.5726 C.3     1  UNL1        0.0827
     19 N          62.4192   84.8899   15.7039 N.3     1  UNL1       -0.2696
     20 C          63.6552   85.2065   16.4928 C.3     1  UNL1        0.0897
     21 C          61.1197   85.5562   16.0465 C.3     1  UNL1        0.0897
     22 O          64.4095   92.5557   12.6426 O.3     1  UNL1       -0.4751
     23 C          65.7642   93.1997   12.6592 C.3     1  UNL1        0.2103
     24 C          66.6461   93.1227   11.4484 C.3     1  UNL1        0.0724
     25 C          67.6184   92.2722   12.2106 C.3     1  UNL1        0.0093
     26 C          65.6738   93.9733   10.6861 C.3     1  UNL1        0.0093
     27 C          67.5280   93.0458   10.2375 C.2     1  UNL1        0.0532
     28 O          67.8595   91.7129    9.6345 O.co2   1  UNL1       -0.5491
     29 O          68.0786   94.3017    9.6296 O.co2   1  UNL1       -0.5491
@<TRIPOS>UNITY_ATOM_ATTR
28 1
charge -1
@<TRIPOS>BOND
     1    18    17    1
     2    18    11    1
     3    11     1    1
     4     1     2   ar
     5     2     3   ar
     6     3     4   ar
     7     4     5   ar
     8     5     6   ar
     9     6    22    1
    10    22    23    1
    11    23    24    1
    12    24    25    1
    13    24    26    1
    14    24    27    1
    15    27    28   ar
    16    27    29   ar
    17     6     7   ar
    18     7     8   ar
    19     8     9   ar
    20     9    10   ar
    21    11    12    1
    22    12    13   ar
    23    13    14   ar
    24    14    15   ar
    25    15    16   ar
    26    18    19    1
    27    19    20    1
    28    19    21    1
    29    10     1   ar
    30    16    12   ar
    31     9     4   ar
@<TRIPOS>MOLECULE
*****
 29 31 0 0 0
SMALL
GASTEIGER

@<TRIPOS>ATOM
      1 C          45.7630   78.6514   17.9541 C.ar    1  UNL1       -0.0004
      2 C          46.9208   77.9203   18.5665 C.ar    1  UNL1       -0.0024
      3 C          47.0004   76.4257   18.4687 C.ar    1  UNL1       -0.0002
      4 C          45.9221   75.6620   17.7586 C.ar    1  UNL1        0.0030
      5 C          46.0017   74.1673   17.6608 C.ar    1  UNL1        0.0369
      6 C          44.9235   73.4037   16.9507 C.ar    1  UNL1        0.1386
      7 C          43.7657   74.1348   16.3383 C.ar    1  UNL1        0.0369
      8 C          43.6861   75.6294   16.4361 C.ar    1  UNL1        0.0031
      9 C          44.7643   76.3931   17.1462 C.ar    1  UNL1       -0.0001
     10 C          44.6847   77.8877   17.2440 C.ar    1  UNL1       -0.0024
     11 C          45.6834   80.1461   18.0518 C.3     1  UNL1        0.1240
     12 N          45.3514   80.9605   16.8367 N.ar    1  UNL1       -0.3045
     13 C          44.2541   81.9776   16.7297 C.ar    1  UNL1        0.0983
     14 C          44.2831   82.5465   15.3421 C.ar    1  UNL1        0.1193
     15 N          45.3983   81.8811   14.5914 N.ar    1  UNL1       -0.2223
     16 C          46.0585   80.9009   15.5152 C.ar    1  UNL1        0.1788
     17 C          47.0262   81.8497   19.4818 C.3     1  UNL1        0.0197
     18 C          45.9357   80.8264   19.3646 C.3     1  UNL1        0.0827
     19 N          45.0975   80.4833   20.5604 N.3     1  UNL1       -0.2696
     20 C          43.6334   80.8094   20.5685 C.3     1  UNL1        0.0897
     21 C          45.7234   79.8142   21.7480 C.3     1  UNL1        0.0897
     22 O          45.0031   71.9090   16.8530 O.3     1  UNL1       -0.4751
     23 C          44.4774   71.2079   15.6354 C.3     1  UNL1        0.2103
     24 C          45.3553   70.2531   14.8821 C.3     1  UNL1        0.0724
     25 C          46.2472   70.1269   16.0815 C.3     1  UNL1        0.0093
     26 C          44.4635   70.3793   13.6827 C.3     1  UNL1        0.0093
     27 C          46.2332   69.2983   14.1288 C.2     1  UNL1        0.0532
     28 O          47.1057   68.3331   14.8755 O.co2   1  UNL1       -0.5491
     29 O          46.2388   69.3086   12.6289 O.co2   1  UNL1       -0.5491
@<TRIPOS>UNITY_ATOM_ATTR
28 1
charge -1
@<TRIPOS>BOND
     1    18    17    1
     2    18    11    1
     3    11     1    1
     4     1     2   ar
     5     2     3   ar
     6     3     4   ar
     7     4     5   ar
     8     5     6   ar
     9     6    22    1
    10    22    23    1
    11    23    24    1
    12    24    25    1
    13    24    26    1
    14    24    27    1
    15    27    28   ar
    16    27    29   ar
    17     6     7   ar
    18     7     8   ar
    19     8     9   ar
    20     9    10   ar
    21    11    12    1
    22    12    13   ar
    23    13    14   ar
    24    14    15   ar
    25    15    16   ar
    26    18    19    1
    27    19    20    1
    28    19    21    1
    29    10     1   ar
    30    16    12   ar
    31     9     4   ar
