@<TRIPOS>MOLECULE
*****
 34 37 0 0 0
SMALL
GASTEIGER

@<TRIPOS>ATOM
      1 C          62.7429   89.2012   12.2627 C.ar    1  UNL1        0.0457
      2 C          61.5185   90.0665   12.3090 C.ar    1  UNL1        0.0272
      3 C          60.3951   89.8286   11.3439 C.ar    1  UNL1        0.0765
      4 CL         59.1706   90.6939   11.3903 Cl      1  UNL1       -0.0806
      5 C          60.4962   88.7256   10.3324 C.ar    1  UNL1        0.0931
      6 N          59.3727   88.4878    9.3673 N.ar    1  UNL1       -0.2422
      7 C          59.4738   87.3848    8.3558 C.ar    1  UNL1        0.1103
      8 C          60.6982   86.5195    8.3095 C.ar    1  UNL1        0.1009
      9 C          61.8216   86.7573    9.2746 C.ar    1  UNL1        0.0611
     10 C          61.7205   87.8604   10.2861 C.ar    1  UNL1        0.0338
     11 C          62.8439   88.0982   11.2512 C.ar    1  UNL1        0.0171
     12 N          63.8663   89.4390   13.2278 N.pl3   1  UNL1       -0.3308
     13 H          64.4240   88.6858   13.5293 H       1  UNL1        0.1469
     14 C          64.1400   90.8244   13.7336 C.3     1  UNL1        0.1175
     15 C          66.5043   92.0626   13.5849 C.2     1  UNL1        0.0624
     16 N          67.1837   92.9332   12.5698 N.2     1  UNL1       -0.2310
     17 C          66.2553   93.0957   11.4028 C.2     1  UNL1        0.1939
     18 N          65.0021   92.3254   11.6968 N.2     1  UNL1       -0.2446
     19 C          65.1560   91.6870   13.0454 C.3     1  UNL1        0.1600
     20 C          67.0732   91.6415   14.9074 C.3     1  UNL1        0.0434
     21 C          68.5444   93.5480   15.8827 C.3     1  UNL1        0.0004
     22 C          67.3346   92.6657   15.9717 C.3     1  UNL1        0.0060
     23 C          60.7993   85.4165    7.2980 C.1     1  UNL1        0.1032
     24 N          60.9003   84.3134    6.2865 N.1     1  UNL1       -0.1907
     25 N          63.0460   85.8921    9.2282 N.pl3   1  UNL1       -0.3119
     26 H          63.7763   86.1057    8.6035 H       1  UNL1        0.1522
     27 C          63.1577   84.7014   10.1337 C.ar    1  UNL1        0.0493
     28 C          63.7707   83.4294    9.6278 C.ar    1  UNL1        0.0170
     29 C          63.8824   82.2387   10.5332 C.ar    1  UNL1        0.0318
     30 C          63.3812   82.3201   11.9446 C.ar    1  UNL1        0.1507
     31 F          63.4929   81.1295   12.8501 F       1  UNL1       -0.2033
     32 C          62.7682   83.5923   12.4506 C.ar    1  UNL1        0.0863
     33 CL         62.2669   83.6737   13.8620 Cl      1  UNL1       -0.0799
     34 C          62.6564   84.7829   11.5452 C.ar    1  UNL1        0.0283
@<TRIPOS>BOND
     1    21    22    1
     2    22    20    1
     3    20    15    1
     4    15    16    2
     5    16    17    1
     6    17    18    2
     7    18    19    1
     8    19    14    1
     9    14    12    1
    10    12     1    1
    11     1     2   ar
    12     2     3   ar
    13     3     4    1
    14     3     5   ar
    15     5     6   ar
    16     6     7   ar
    17     7     8   ar
    18     8    23    1
    19    23    24    3
    20     8     9   ar
    21     9    25    1
    22    25    27    1
    23    27    28   ar
    24    28    29   ar
    25    29    30   ar
    26    30    31    1
    27    30    32   ar
    28    32    33    1
    29    32    34   ar
    30     9    10   ar
    31    10    11   ar
    32    19    15    1
    33    11     1   ar
    34    10     5   ar
    35    34    27   ar
    36    12    13    1
    37    25    26    1
@<TRIPOS>MOLECULE
*****
 34 37 0 0 0
SMALL
GASTEIGER

@<TRIPOS>ATOM
      1 C          62.7453   89.2293   12.1852 C.ar    1  UNL1        0.0457
      2 C          61.5188   90.0915   12.2344 C.ar    1  UNL1        0.0272
      3 C          60.3890   89.8435   11.2795 C.ar    1  UNL1        0.0765
      4 CL         59.1625   90.7057   11.3287 Cl      1  UNL1       -0.0806
      5 C          60.4856   88.7334   10.2754 C.ar    1  UNL1        0.0931
      6 N          59.3556   88.4854    9.3204 N.ar    1  UNL1       -0.2422
      7 C          59.4522   87.3753    8.3163 C.ar    1  UNL1        0.1103
      8 C          60.6788   86.5131    8.2671 C.ar    1  UNL1        0.1009
      9 C          61.8086   86.7611    9.2220 C.ar    1  UNL1        0.0611
     10 C          61.7120   87.8712   10.2261 C.ar    1  UNL1        0.0338
     11 C          62.8419   88.1192   11.1810 C.ar    1  UNL1        0.0171
     12 N          63.8752   89.4772   13.1401 N.pl3   1  UNL1       -0.3308
     13 H          64.4954   88.7477   13.3689 H       1  UNL1        0.1469
     14 C          64.0602   90.8367   13.7464 C.3     1  UNL1        0.1175
     15 C          65.9892   92.3275   12.6502 C.2     1  UNL1        0.0624
     16 N          67.3631   92.7597   13.0692 N.2     1  UNL1       -0.2310
     17 C          67.6385   92.1790   14.4246 C.2     1  UNL1        0.1939
     18 N          66.4346   91.3880   14.8433 N.2     1  UNL1       -0.2446
     19 C          65.4154   91.4798   13.7466 C.3     1  UNL1        0.1600
     20 C          65.3085   92.6810   11.3611 C.3     1  UNL1        0.0434
     21 C          65.9452   95.1096   10.6924 C.3     1  UNL1        0.0004
     22 C          65.9601   93.6371   10.4065 C.3     1  UNL1        0.0060
     23 C          60.7753   85.4030    7.2630 C.1     1  UNL1        0.1032
     24 N          60.8719   84.2928    6.2588 N.1     1  UNL1       -0.1907
     25 N          63.0351   85.8989    9.1728 N.pl3   1  UNL1       -0.3119
     26 H          63.7581   86.1073    8.5379 H       1  UNL1        0.1522
     27 C          63.1599   84.7192   10.0907 C.ar    1  UNL1        0.0493
     28 C          63.7970   83.4524    9.6016 C.ar    1  UNL1        0.0170
     29 C          63.9218   82.2727   10.5196 C.ar    1  UNL1        0.0318
     30 C          63.4095   82.3597   11.9267 C.ar    1  UNL1        0.1507
     31 F          63.5343   81.1800   12.8447 F       1  UNL1       -0.2033
     32 C          62.7724   83.6266   12.4159 C.ar    1  UNL1        0.0863
     33 CL         62.2601   83.7137   13.8229 Cl      1  UNL1       -0.0799
     34 C          62.6475   84.8063   11.4979 C.ar    1  UNL1        0.0283
@<TRIPOS>BOND
     1    21    22    1
     2    22    20    1
     3    20    15    1
     4    15    16    2
     5    16    17    1
     6    17    18    2
     7    18    19    1
     8    19    14    1
     9    14    12    1
    10    12     1    1
    11     1     2   ar
    12     2     3   ar
    13     3     4    1
    14     3     5   ar
    15     5     6   ar
    16     6     7   ar
    17     7     8   ar
    18     8    23    1
    19    23    24    3
    20     8     9   ar
    21     9    25    1
    22    25    27    1
    23    27    28   ar
    24    28    29   ar
    25    29    30   ar
    26    30    31    1
    27    30    32   ar
    28    32    33    1
    29    32    34   ar
    30     9    10   ar
    31    10    11   ar
    32    19    15    1
    33    11     1   ar
    34    10     5   ar
    35    34    27   ar
    36    12    13    1
    37    25    26    1
@<TRIPOS>MOLECULE
*****
 34 37 0 0 0
SMALL
GASTEIGER

@<TRIPOS>ATOM
      1 C          64.1449   87.9203   14.8023 C.ar    1  UNL1        0.0457
      2 C          63.6666   87.6817   16.2038 C.ar    1  UNL1        0.0272
      3 C          63.1106   86.3429   16.5888 C.ar    1  UNL1        0.0765
      4 CL         62.6323   86.1042   17.9904 Cl      1  UNL1       -0.0806
      5 C          63.0329   85.2426   15.5723 C.ar    1  UNL1        0.0931
      6 N          62.4768   83.9037   15.9573 N.ar    1  UNL1       -0.2422
      7 C          62.3991   82.8034   14.9408 C.ar    1  UNL1        0.1103
      8 C          62.8774   83.0421   13.5392 C.ar    1  UNL1        0.1009
      9 C          63.4334   84.3809   13.1542 C.ar    1  UNL1        0.0611
     10 C          63.5111   85.4812   14.1708 C.ar    1  UNL1        0.0338
     11 C          64.0672   86.8201   13.7858 C.ar    1  UNL1        0.0171
     12 N          64.7010   89.2592   14.4173 N.pl3   1  UNL1       -0.3308
     13 H          65.6705   89.4226   14.4678 H       1  UNL1        0.1469
     14 C          63.7798   90.3492   13.9553 C.3     1  UNL1        0.1175
     15 C          63.6433   90.9864   11.3629 C.2     1  UNL1        0.0624
     16 N          64.2623   92.0427   10.4962 N.2     1  UNL1       -0.2310
     17 C          65.1455   92.8928   11.3608 C.2     1  UNL1        0.1939
     18 N          65.0722   92.3618   12.7619 N.2     1  UNL1       -0.2446
     19 C          64.1438   91.1836   12.7631 C.3     1  UNL1        0.1600
     20 C          62.6910   89.9201   10.9090 C.3     1  UNL1        0.0434
     21 C          60.1199   90.0360   11.2645 C.3     1  UNL1        0.0004
     22 C          61.3264   90.2953   10.4118 C.3     1  UNL1        0.0060
     23 C          62.7996   81.9418   12.5227 C.1     1  UNL1        0.1032
     24 N          62.7219   80.8415   11.5061 N.1     1  UNL1       -0.1907
     25 N          63.9117   84.6195   11.7527 N.pl3   1  UNL1       -0.3119
     26 H          64.8499   84.4390   11.5153 H       1  UNL1        0.1522
     27 C          62.9604   85.1331   10.7128 C.ar    1  UNL1        0.0493
     28 C          61.8220   86.0243   11.1125 C.ar    1  UNL1        0.0170
     29 C          60.8708   86.5378   10.0726 C.ar    1  UNL1        0.0318
     30 C          61.0579   86.1602    8.6330 C.ar    1  UNL1        0.1507
     31 F          60.1067   86.6738    7.5931 F       1  UNL1       -0.2033
     32 C          62.1963   85.2689    8.2333 C.ar    1  UNL1        0.0863
     33 CL         62.3835   84.8913    6.7938 Cl      1  UNL1       -0.0799
     34 C          63.1476   84.7554    9.2732 C.ar    1  UNL1        0.0283
@<TRIPOS>BOND
     1    21    22    1
     2    22    20    1
     3    20    15    1
     4    15    16    2
     5    16    17    1
     6    17    18    2
     7    18    19    1
     8    19    14    1
     9    14    12    1
    10    12     1    1
    11     1     2   ar
    12     2     3   ar
    13     3     4    1
    14     3     5   ar
    15     5     6   ar
    16     6     7   ar
    17     7     8   ar
    18     8    23    1
    19    23    24    3
    20     8     9   ar
    21     9    25    1
    22    25    27    1
    23    27    28   ar
    24    28    29   ar
    25    29    30   ar
    26    30    31    1
    27    30    32   ar
    28    32    33    1
    29    32    34   ar
    30     9    10   ar
    31    10    11   ar
    32    19    15    1
    33    11     1   ar
    34    10     5   ar
    35    34    27   ar
    36    12    13    1
    37    25    26    1
@<TRIPOS>MOLECULE
*****
 34 37 0 0 0
SMALL
GASTEIGER

@<TRIPOS>ATOM
      1 C          64.1515   88.1792   14.7227 C.ar    1  UNL1        0.0457
      2 C          63.6774   88.0882   16.1429 C.ar    1  UNL1        0.0272
      3 C          63.1294   86.7950   16.6692 C.ar    1  UNL1        0.0765
      4 CL         62.6553   86.7039   18.0894 Cl      1  UNL1       -0.0806
      5 C          63.0555   85.5926   15.7754 C.ar    1  UNL1        0.0931
      6 N          62.5074   84.2993   16.3017 N.ar    1  UNL1       -0.2422
      7 C          62.4335   83.0970   15.4079 C.ar    1  UNL1        0.1103
      8 C          62.9076   83.1880   13.9877 C.ar    1  UNL1        0.1009
      9 C          63.4557   84.4813   13.4613 C.ar    1  UNL1        0.0611
     10 C          63.5296   85.6836   14.3552 C.ar    1  UNL1        0.0338
     11 C          64.0776   86.9769   13.8289 C.ar    1  UNL1        0.0171
     12 N          64.6996   89.4725   14.1963 N.pl3   1  UNL1       -0.3308
     13 H          65.1150   89.5044   13.3043 H       1  UNL1        0.1469
     14 C          64.6147   90.7173   15.0290 C.3     1  UNL1        0.1175
     15 C          65.9907   92.5235   13.6186 C.2     1  UNL1        0.0624
     16 N          67.0824   93.5041   13.9293 N.2     1  UNL1       -0.2310
     17 C          67.4196   93.3765   15.3854 C.2     1  UNL1        0.1939
     18 N          66.5361   92.3169   15.9746 N.2     1  UNL1       -0.2446
     19 C          65.6531   91.7898   14.8826 C.3     1  UNL1        0.1600
     20 C          65.3492   92.3135   12.2791 C.3     1  UNL1        0.0434
     21 C          65.7257   94.3009   10.6486 C.3     1  UNL1        0.0004
     22 C          65.9878   92.8782   11.0448 C.3     1  UNL1        0.0060
     23 C          62.8337   81.9857   13.0938 C.1     1  UNL1        0.1032
     24 N          62.7598   80.7833   12.2000 N.1     1  UNL1       -0.1907
     25 N          63.9297   84.5722   12.0412 N.pl3   1  UNL1       -0.3119
     26 H          64.8472   84.3000   11.8101 H       1  UNL1        0.1522
     27 C          63.0060   85.0779   10.9730 C.ar    1  UNL1        0.0493
     28 C          61.8262   85.9274   11.3423 C.ar    1  UNL1        0.0170
     29 C          60.9024   86.4330   10.2741 C.ar    1  UNL1        0.0318
     30 C          61.1584   86.0892    8.8367 C.ar    1  UNL1        0.1507
     31 F          60.2347   86.5949    7.7686 F       1  UNL1       -0.2033
     32 C          62.3383   85.2397    8.4674 C.ar    1  UNL1        0.0863
     33 CL         62.5943   84.8959    7.0300 Cl      1  UNL1       -0.0799
     34 C          63.2621   84.7341    9.5355 C.ar    1  UNL1        0.0283
@<TRIPOS>BOND
     1    21    22    1
     2    22    20    1
     3    20    15    1
     4    15    16    2
     5    16    17    1
     6    17    18    2
     7    18    19    1
     8    19    14    1
     9    14    12    1
    10    12     1    1
    11     1     2   ar
    12     2     3   ar
    13     3     4    1
    14     3     5   ar
    15     5     6   ar
    16     6     7   ar
    17     7     8   ar
    18     8    23    1
    19    23    24    3
    20     8     9   ar
    21     9    25    1
    22    25    27    1
    23    27    28   ar
    24    28    29   ar
    25    29    30   ar
    26    30    31    1
    27    30    32   ar
    28    32    33    1
    29    32    34   ar
    30     9    10   ar
    31    10    11   ar
    32    19    15    1
    33    11     1   ar
    34    10     5   ar
    35    34    27   ar
    36    12    13    1
    37    25    26    1
@<TRIPOS>MOLECULE
*****
 34 37 0 0 0
SMALL
GASTEIGER

@<TRIPOS>ATOM
      1 C          62.7734   89.1748   12.0918 C.ar    1  UNL1        0.0457
      2 C          61.5540   90.0457   12.1587 C.ar    1  UNL1        0.0272
      3 C          60.4061   89.8017   11.2245 C.ar    1  UNL1        0.0765
      4 CL         59.1866   90.6726   11.2913 Cl      1  UNL1       -0.0806
      5 C          60.4776   88.6869   10.2235 C.ar    1  UNL1        0.0931
      6 N          59.3296   88.4430    9.2893 N.ar    1  UNL1       -0.2422
      7 C          59.4011   87.3282    8.2882 C.ar    1  UNL1        0.1103
      8 C          60.6206   86.4573    8.2214 C.ar    1  UNL1        0.1009
      9 C          61.7685   86.7012    9.1556 C.ar    1  UNL1        0.0611
     10 C          61.6970   87.8160   10.1566 C.ar    1  UNL1        0.0338
     11 C          62.8449   88.0600   11.0908 C.ar    1  UNL1        0.0171
     12 N          63.9214   89.4187   13.0260 N.pl3   1  UNL1       -0.3308
     13 H          64.3261   88.6665   13.5155 H       1  UNL1        0.1469
     14 C          64.4527   90.8087   13.2144 C.3     1  UNL1        0.1175
     15 C          63.9788   90.8555   15.8447 C.2     1  UNL1        0.0624
     16 N          64.4566   91.6928   16.9939 N.2     1  UNL1       -0.2310
     17 C          65.4165   92.7128   16.4566 C.2     1  UNL1        0.1939
     18 N          65.5318   92.5057   14.9754 N.2     1  UNL1       -0.2446
     19 C          64.6433   91.3578   14.5973 C.3     1  UNL1        0.1600
     20 C          63.0071   89.7159   15.9283 C.3     1  UNL1        0.0434
     21 C          63.0926   87.3030   16.8881 C.3     1  UNL1        0.0004
     22 C          63.0407   88.7863   17.1051 C.3     1  UNL1        0.0060
     23 C          60.6921   85.3424    7.2204 C.1     1  UNL1        0.1032
     24 N          60.7636   84.2276    6.2194 N.1     1  UNL1       -0.1907
     25 N          62.9879   85.8303    9.0888 N.pl3   1  UNL1       -0.3119
     26 H          63.6836   86.0083    8.4153 H       1  UNL1        0.1522
     27 C          63.1474   84.6882   10.0480 C.ar    1  UNL1        0.0493
     28 C          63.8057   83.4176    9.5985 C.ar    1  UNL1        0.0170
     29 C          63.9652   82.2755   10.5577 C.ar    1  UNL1        0.0318
     30 C          63.4664   82.4040   11.9665 C.ar    1  UNL1        0.1507
     31 F          63.6259   81.2619   12.9258 F       1  UNL1       -0.2033
     32 C          62.8081   83.6747   12.4161 C.ar    1  UNL1        0.0863
     33 CL         62.3094   83.8033   13.8249 Cl      1  UNL1       -0.0799
     34 C          62.6487   84.8168   11.4568 C.ar    1  UNL1        0.0283
@<TRIPOS>BOND
     1    21    22    1
     2    22    20    1
     3    20    15    1
     4    15    16    2
     5    16    17    1
     6    17    18    2
     7    18    19    1
     8    19    14    1
     9    14    12    1
    10    12     1    1
    11     1     2   ar
    12     2     3   ar
    13     3     4    1
    14     3     5   ar
    15     5     6   ar
    16     6     7   ar
    17     7     8   ar
    18     8    23    1
    19    23    24    3
    20     8     9   ar
    21     9    25    1
    22    25    27    1
    23    27    28   ar
    24    28    29   ar
    25    29    30   ar
    26    30    31    1
    27    30    32   ar
    28    32    33    1
    29    32    34   ar
    30     9    10   ar
    31    10    11   ar
    32    19    15    1
    33    11     1   ar
    34    10     5   ar
    35    34    27   ar
    36    12    13    1
    37    25    26    1
@<TRIPOS>MOLECULE
*****
 34 37 0 0 0
SMALL
GASTEIGER

@<TRIPOS>ATOM
      1 C          61.6050   89.5171   11.8397 C.ar    1  UNL1        0.0457
      2 C          61.9854   90.1702   10.5440 C.ar    1  UNL1        0.0272
      3 C          63.1314   91.1370   10.4996 C.ar    1  UNL1        0.0765
      4 CL         63.5119   91.7901    9.2039 Cl      1  UNL1       -0.0806
      5 C          63.8970   91.4507   11.7508 C.ar    1  UNL1        0.0931
      6 N          65.0430   92.4175   11.7063 N.ar    1  UNL1       -0.2422
      7 C          65.8085   92.7312   12.9575 C.ar    1  UNL1        0.1103
      8 C          65.4281   92.0781   14.2532 C.ar    1  UNL1        0.1009
      9 C          64.2821   91.1113   14.2976 C.ar    1  UNL1        0.0611
     10 C          63.5165   90.7976   13.0464 C.ar    1  UNL1        0.0338
     11 C          62.3706   89.8308   13.0909 C.ar    1  UNL1        0.0171
     12 N          60.4590   88.5503   11.8841 N.pl3   1  UNL1       -0.3308
     13 H          59.7240   88.6872   12.5247 H       1  UNL1        0.1469
     14 C          60.4328   87.3748   10.9527 C.3     1  UNL1        0.1175
     15 C          62.1621   85.5849    9.9776 C.2     1  UNL1        0.0624
     16 N          63.0817   84.5627   10.5771 N.2     1  UNL1       -0.2310
     17 C          62.9352   84.6256   12.0687 C.2     1  UNL1        0.1939
     18 N          61.9251   85.6867   12.3909 N.2     1  UNL1       -0.2446
     19 C          61.4473   86.2796   11.0985 C.3     1  UNL1        0.1600
     20 C          61.9879   85.8636    8.5140 C.3     1  UNL1        0.0434
     21 C          61.9380   84.5794    6.2560 C.3     1  UNL1        0.0004
     22 C          62.6685   84.9940    7.4988 C.3     1  UNL1        0.0060
     23 C          66.1936   92.3918   15.5044 C.1     1  UNL1        0.1032
     24 N          66.9592   92.7055   16.7556 N.1     1  UNL1       -0.1907
     25 N          63.9017   90.4582   15.5933 N.pl3   1  UNL1       -0.3119
     26 H          63.6752   91.0115   16.3755 H       1  UNL1        0.1522
     27 C          63.8663   88.9622   15.6971 C.ar    1  UNL1        0.0493
     28 C          64.5505   88.1221   14.6599 C.ar    1  UNL1        0.0170
     29 C          64.5152   86.6261   14.7637 C.ar    1  UNL1        0.0318
     30 C          63.7956   85.9703   15.9048 C.ar    1  UNL1        0.1507
     31 F          63.7603   84.4743   16.0087 F       1  UNL1       -0.2033
     32 C          63.1114   86.8105   16.9421 C.ar    1  UNL1        0.0863
     33 CL         62.3918   86.1547   18.0832 Cl      1  UNL1       -0.0799
     34 C          63.1467   88.3065   16.8383 C.ar    1  UNL1        0.0283
@<TRIPOS>BOND
     1    21    22    1
     2    22    20    1
     3    20    15    1
     4    15    16    2
     5    16    17    1
     6    17    18    2
     7    18    19    1
     8    19    14    1
     9    14    12    1
    10    12     1    1
    11     1     2   ar
    12     2     3   ar
    13     3     4    1
    14     3     5   ar
    15     5     6   ar
    16     6     7   ar
    17     7     8   ar
    18     8    23    1
    19    23    24    3
    20     8     9   ar
    21     9    25    1
    22    25    27    1
    23    27    28   ar
    24    28    29   ar
    25    29    30   ar
    26    30    31    1
    27    30    32   ar
    28    32    33    1
    29    32    34   ar
    30     9    10   ar
    31    10    11   ar
    32    19    15    1
    33    11     1   ar
    34    10     5   ar
    35    34    27   ar
    36    12    13    1
    37    25    26    1
@<TRIPOS>MOLECULE
*****
 34 37 0 0 0
SMALL
GASTEIGER

@<TRIPOS>ATOM
      1 C          64.0322   88.0829   14.3283 C.ar    1  UNL1        0.0457
      2 C          63.6793   87.9923   15.7833 C.ar    1  UNL1        0.0272
      3 C          63.2408   86.6827   16.3685 C.ar    1  UNL1        0.0765
      4 CL         62.8879   86.5920   17.8237 Cl      1  UNL1       -0.0806
      5 C          63.1551   85.4637   15.4987 C.ar    1  UNL1        0.0931
      6 N          62.7165   84.1540   16.0840 N.ar    1  UNL1       -0.2422
      7 C          62.6308   82.9350   15.2141 C.ar    1  UNL1        0.1103
      8 C          62.9837   83.0256   13.7590 C.ar    1  UNL1        0.1009
      9 C          63.4222   84.3352   13.1738 C.ar    1  UNL1        0.0611
     10 C          63.5079   85.5542   14.0436 C.ar    1  UNL1        0.0338
     11 C          63.9465   86.8639   13.4584 C.ar    1  UNL1        0.0171
     12 N          64.4708   89.3926   13.7430 N.pl3   1  UNL1       -0.3308
     13 H          64.3957   89.5484   12.7738 H       1  UNL1        0.1469
     14 C          65.0238   90.4647   14.6343 C.3     1  UNL1        0.1175
     15 C          66.5902   92.6307   14.6534 C.2     1  UNL1        0.0624
     16 N          66.8211   93.7809   13.7187 N.2     1  UNL1       -0.2310
     17 C          65.9298   93.5956   12.5265 C.2     1  UNL1        0.1939
     18 N          65.1480   92.3307   12.7244 N.2     1  UNL1       -0.2446
     19 C          65.5562   91.7344   14.0389 C.3     1  UNL1        0.1600
     20 C          67.2733   92.4146   15.9712 C.3     1  UNL1        0.0434
     21 C          69.2862   94.0525   16.0977 C.3     1  UNL1        0.0004
     22 C          68.7489   92.6520   16.0989 C.3     1  UNL1        0.0060
     23 C          62.8980   81.8066   12.8891 C.1     1  UNL1        0.1032
     24 N          62.8123   80.5876   12.0193 N.1     1  UNL1       -0.1907
     25 N          63.7751   84.4258   11.7187 N.pl3   1  UNL1       -0.3119
     26 H          64.6029   84.0095   11.3861 H       1  UNL1        0.1522
     27 C          62.8666   85.1506   10.7704 C.ar    1  UNL1        0.0493
     28 C          62.9775   84.9100    9.2940 C.ar    1  UNL1        0.0170
     29 C          62.0691   85.6348    8.3456 C.ar    1  UNL1        0.0318
     30 C          61.0498   86.6003    8.8737 C.ar    1  UNL1        0.1507
     31 F          60.1413   87.3251    7.9253 F       1  UNL1       -0.2033
     32 C          60.9388   86.8409   10.3501 C.ar    1  UNL1        0.0863
     33 CL         59.9195   87.8063   10.8782 Cl      1  UNL1       -0.0799
     34 C          61.8473   86.1161   11.2985 C.ar    1  UNL1        0.0283
@<TRIPOS>BOND
     1    21    22    1
     2    22    20    1
     3    20    15    1
     4    15    16    2
     5    16    17    1
     6    17    18    2
     7    18    19    1
     8    19    14    1
     9    14    12    1
    10    12     1    1
    11     1     2   ar
    12     2     3   ar
    13     3     4    1
    14     3     5   ar
    15     5     6   ar
    16     6     7   ar
    17     7     8   ar
    18     8    23    1
    19    23    24    3
    20     8     9   ar
    21     9    25    1
    22    25    27    1
    23    27    28   ar
    24    28    29   ar
    25    29    30   ar
    26    30    31    1
    27    30    32   ar
    28    32    33    1
    29    32    34   ar
    30     9    10   ar
    31    10    11   ar
    32    19    15    1
    33    11     1   ar
    34    10     5   ar
    35    34    27   ar
    36    12    13    1
    37    25    26    1
@<TRIPOS>MOLECULE
*****
 34 37 0 0 0
SMALL
GASTEIGER

@<TRIPOS>ATOM
      1 C          63.0522   90.1679   12.1971 C.ar    1  UNL1        0.0457
      2 C          62.0978   90.4252   11.0689 C.ar    1  UNL1        0.0272
      3 C          61.4811   89.2740   10.3310 C.ar    1  UNL1        0.0765
      4 CL         60.5266   89.5312    9.2027 Cl      1  UNL1       -0.0806
      5 C          61.8188   87.8656   10.7214 C.ar    1  UNL1        0.0931
      6 N          61.2020   86.7144    9.9835 N.ar    1  UNL1       -0.2422
      7 C          61.5396   85.3060   10.3739 C.ar    1  UNL1        0.1103
      8 C          62.4941   85.0488   11.5022 C.ar    1  UNL1        0.1009
      9 C          63.1108   86.2000   12.2400 C.ar    1  UNL1        0.0611
     10 C          62.7731   87.6084   11.8496 C.ar    1  UNL1        0.0338
     11 C          63.3899   88.7595   12.5875 C.ar    1  UNL1        0.0171
     12 N          63.6690   91.3191   12.9350 N.pl3   1  UNL1       -0.3308
     13 H          63.2892   91.6132   13.7943 H       1  UNL1        0.1469
     14 C          64.8644   92.0222   12.3635 C.3     1  UNL1        0.1175
     15 C          67.4662   92.2780   12.9207 C.2     1  UNL1        0.0624
     16 N          68.2555   92.7701   14.0975 N.2     1  UNL1       -0.2310
     17 C          67.2864   93.1972   15.1598 C.2     1  UNL1        0.1939
     18 N          65.8981   92.9690   14.6395 N.2     1  UNL1       -0.2446
     19 C          66.0093   92.4009   13.2557 C.3     1  UNL1        0.1600
     20 C          68.0340   91.7548   11.6347 C.3     1  UNL1        0.0434
     21 C          68.7120   92.5046    9.2413 C.3     1  UNL1        0.0004
     22 C          67.6902   92.4228   10.3363 C.3     1  UNL1        0.0060
     23 C          62.8318   83.6404   11.8926 C.1     1  UNL1        0.1032
     24 N          63.1694   82.2320   12.2830 N.1     1  UNL1       -0.1907
     25 N          64.0652   85.9427   13.3682 N.pl3   1  UNL1       -0.3119
     26 H          64.9667   85.5944   13.1806 H       1  UNL1        0.1522
     27 C          63.6461   86.2162   14.7823 C.ar    1  UNL1        0.0493
     28 C          63.1989   85.0878   15.6635 C.ar    1  UNL1        0.0170
     29 C          62.7797   85.3612   17.0776 C.ar    1  UNL1        0.0318
     30 C          62.8078   86.7631   17.6104 C.ar    1  UNL1        0.1507
     31 F          62.3887   87.0365   19.0245 F       1  UNL1       -0.2033
     32 C          63.2550   87.8916   16.7292 C.ar    1  UNL1        0.0863
     33 CL         63.2830   89.2935   17.2620 Cl      1  UNL1       -0.0799
     34 C          63.6741   87.6181   15.3151 C.ar    1  UNL1        0.0283
@<TRIPOS>BOND
     1    21    22    1
     2    22    20    1
     3    20    15    1
     4    15    16    2
     5    16    17    1
     6    17    18    2
     7    18    19    1
     8    19    14    1
     9    14    12    1
    10    12     1    1
    11     1     2   ar
    12     2     3   ar
    13     3     4    1
    14     3     5   ar
    15     5     6   ar
    16     6     7   ar
    17     7     8   ar
    18     8    23    1
    19    23    24    3
    20     8     9   ar
    21     9    25    1
    22    25    27    1
    23    27    28   ar
    24    28    29   ar
    25    29    30   ar
    26    30    31    1
    27    30    32   ar
    28    32    33    1
    29    32    34   ar
    30     9    10   ar
    31    10    11   ar
    32    19    15    1
    33    11     1   ar
    34    10     5   ar
    35    34    27   ar
    36    12    13    1
    37    25    26    1
@<TRIPOS>MOLECULE
*****
 34 37 0 0 0
SMALL
GASTEIGER

@<TRIPOS>ATOM
      1 C          62.6192   89.9295   11.7916 C.ar    1  UNL1        0.0457
      2 C          61.6320   89.8799   10.6634 C.ar    1  UNL1        0.0272
      3 C          61.1986   88.5574   10.1037 C.ar    1  UNL1        0.0765
      4 CL         60.2114   88.5078    8.9754 Cl      1  UNL1       -0.0806
      5 C          61.7524   87.2846   10.6723 C.ar    1  UNL1        0.0931
      6 N          61.3189   85.9621   10.1125 N.ar    1  UNL1       -0.2422
      7 C          61.8727   84.6893   10.6811 C.ar    1  UNL1        0.1103
      8 C          62.8599   84.7390   11.8094 C.ar    1  UNL1        0.1009
      9 C          63.2933   86.0614   12.3691 C.ar    1  UNL1        0.0611
     10 C          62.7396   87.3342   11.8005 C.ar    1  UNL1        0.0338
     11 C          63.1729   88.6567   12.3602 C.ar    1  UNL1        0.0171
     12 N          63.0526   91.2520   12.3514 N.pl3   1  UNL1       -0.3308
     13 H          62.4002   91.9828   12.4491 H       1  UNL1        0.1469
     14 C          64.4800   91.4609   12.7622 C.3     1  UNL1        0.1175
     15 C          66.2960   93.4211   12.6893 C.2     1  UNL1        0.0624
     16 N          66.9189   94.2501   11.6055 N.2     1  UNL1       -0.2310
     17 C          66.3333   93.8152   10.2947 C.2     1  UNL1        0.1939
     18 N          65.3483   92.7174   10.5686 N.2     1  UNL1       -0.2446
     19 C          65.3253   92.4739   12.0485 C.3     1  UNL1        0.1600
     20 C          66.5917   93.5216   14.1564 C.3     1  UNL1        0.0434
     21 C          68.3579   92.5688   15.8066 C.3     1  UNL1        0.0004
     22 C          67.1967   92.3560   14.8812 C.3     1  UNL1        0.0060
     23 C          63.4137   83.4662   12.3780 C.1     1  UNL1        0.1032
     24 N          63.9675   82.1934   12.9465 N.1     1  UNL1       -0.1907
     25 N          64.2805   86.1110   13.4973 N.pl3   1  UNL1       -0.3119
     26 H          65.2366   85.9552   13.3220 H       1  UNL1        0.1522
     27 C          63.8109   86.3981   14.8927 C.ar    1  UNL1        0.0493
     28 C          63.4249   85.2688   15.8013 C.ar    1  UNL1        0.0170
     29 C          62.9553   85.5558   17.1967 C.ar    1  UNL1        0.0318
     30 C          62.8717   86.9721   17.6835 C.ar    1  UNL1        0.1507
     31 F          62.4021   87.2592   19.0788 F       1  UNL1       -0.2033
     32 C          63.2577   88.1015   16.7748 C.ar    1  UNL1        0.0863
     33 CL         63.1741   89.5178   17.2616 Cl      1  UNL1       -0.0799
     34 C          63.7273   87.8145   15.3794 C.ar    1  UNL1        0.0283
@<TRIPOS>BOND
     1    21    22    1
     2    22    20    1
     3    20    15    1
     4    15    16    2
     5    16    17    1
     6    17    18    2
     7    18    19    1
     8    19    14    1
     9    14    12    1
    10    12     1    1
    11     1     2   ar
    12     2     3   ar
    13     3     4    1
    14     3     5   ar
    15     5     6   ar
    16     6     7   ar
    17     7     8   ar
    18     8    23    1
    19    23    24    3
    20     8     9   ar
    21     9    25    1
    22    25    27    1
    23    27    28   ar
    24    28    29   ar
    25    29    30   ar
    26    30    31    1
    27    30    32   ar
    28    32    33    1
    29    32    34   ar
    30     9    10   ar
    31    10    11   ar
    32    19    15    1
    33    11     1   ar
    34    10     5   ar
    35    34    27   ar
    36    12    13    1
    37    25    26    1
