@<TRIPOS>MOLECULE
*****
 27 29 0 0 0
SMALL
GASTEIGER

@<TRIPOS>ATOM
      1 C          62.9623   90.1323   11.9705 C.ar    1  UNL1        0.1534
      2 C          63.6071   90.1840   13.3238 C.ar    1  UNL1        0.0351
      3 C          64.7398   91.1336   13.5790 C.ar    1  UNL1        0.0722
      4 CL         65.3847   91.1853   14.9324 Cl      1  UNL1       -0.0809
      5 C          65.2279   92.0313   12.4809 C.ar    1  UNL1        0.0577
      6 C          64.5831   91.9796   11.1276 C.ar    1  UNL1        0.0462
      7 C          63.4503   91.0301   10.8724 C.ar    1  UNL1        0.1602
      8 F          62.8055   90.9783    9.5190 F       1  UNL1       -0.2027
      9 O          62.7645   88.0220   11.8835 O.2     1  UNL1       -0.1498
     10 S          61.8295   89.1827   11.7152 S.O2    1  UNL1        0.0772
     11 O          60.8944   90.3434   11.5469 O.2     1  UNL1       -0.1498
     12 N          60.6967   88.2332   11.4599 N.pl3   1  UNL1       -0.1936
     13 H          60.1258   87.9363   12.2050 H       1  UNL1        0.1758
     14 C          60.4338   87.7359   10.0693 C.ar    1  UNL1        0.1786
     15 N          59.7048   88.4800    8.9900 N.ar    1  UNL1       -0.2214
     16 C          59.6741   87.6112    7.7676 C.ar    1  UNL1        0.1079
     17 C          60.3842   86.3302    8.0915 C.ar    1  UNL1        0.0588
     18 S          60.8537   86.4073    9.5141 S.2     1  UNL1       -0.0497
     19 N          66.3607   92.9809   12.7362 N.pl3   1  UNL1       -0.3300
     20 H          67.2128   92.6449   13.0970 H       1  UNL1        0.1469
     21 C          66.1951   94.4424   12.4418 C.3     1  UNL1        0.1170
     22 C          66.5362   94.9769   11.0824 C.3     1  UNL1        0.1346
     23 C          65.9089   96.2505   10.5982 C.3     1  UNL1        0.0314
     24 C          66.2499   96.7850    9.2389 C.3     1  UNL1        0.0051
     25 C          67.2183   96.0459    8.3636 C.3     1  UNL1        0.0322
     26 C          67.8456   94.7724    8.8478 C.3     1  UNL1        0.1421
     27 O          67.5046   94.2379   10.2072 O.3     1  UNL1       -0.3545
@<TRIPOS>BOND
     1     9    10    2
     2    10    11    2
     3    10    12    1
     4    12    14    1
     5    14    15   ar
     6    15    16   ar
     7    16    17   ar
     8    17    18   ar
     9    10     1    1
    10     1     2   ar
    11     2     3   ar
    12     3     4    1
    13     3     5   ar
    14     5    19    1
    15    19    21    1
    16    21    22    1
    17    22    23    1
    18    23    24    1
    19    24    25    1
    20    25    26    1
    21    26    27    1
    22     5     6   ar
    23     6     7   ar
    24     7     8    1
    25    18    14   ar
    26     7     1   ar
    27    27    22    1
    28    12    13    1
    29    19    20    1
@<TRIPOS>MOLECULE
*****
 27 29 0 0 0
SMALL
GASTEIGER

@<TRIPOS>ATOM
      1 C          63.5733   90.6567   11.8156 C.ar    1  UNL1        0.1534
      2 C          62.5761   90.6726   10.6952 C.ar    1  UNL1        0.0351
      3 C          61.7135   89.4719   10.4418 C.ar    1  UNL1        0.0722
      4 CL         60.7162   89.4878    9.3215 Cl      1  UNL1       -0.0809
      5 C          61.8482   88.2552   11.3088 C.ar    1  UNL1        0.0577
      6 C          62.8454   88.2393   12.4291 C.ar    1  UNL1        0.0462
      7 C          63.7080   89.4400   12.6825 C.ar    1  UNL1        0.1602
      8 F          64.7053   89.4241   13.8029 F       1  UNL1       -0.2027
      9 O          64.8847   91.8370   10.6379 O.2     1  UNL1       -0.1498
     10 S          64.4359   91.8574   12.0690 S.O2    1  UNL1        0.0772
     11 O          63.9871   91.8779   13.5001 O.2     1  UNL1       -0.1498
     12 N          65.2985   93.0581   12.3224 N.pl3   1  UNL1       -0.1936
     13 H          65.1757   93.8745   11.7860 H       1  UNL1        0.1758
     14 C          66.3483   93.0150   13.3930 C.ar    1  UNL1        0.1786
     15 N          66.4581   93.9528   14.5585 N.ar    1  UNL1       -0.2214
     16 C          67.6502   93.5439   15.3719 C.ar    1  UNL1        0.1079
     17 C          68.2773   92.3532   14.7090 C.ar    1  UNL1        0.0588
     18 S          67.4726   92.0264   13.4860 S.2     1  UNL1       -0.0497
     19 N          60.9856   87.0545   11.0554 N.pl3   1  UNL1       -0.3300
     20 H          60.0906   86.9968   11.4614 H       1  UNL1        0.1469
     21 C          61.4866   85.9417   10.1832 C.3     1  UNL1        0.1170
     22 C          62.4507   84.9331   10.7341 C.3     1  UNL1        0.1346
     23 C          63.3608   84.1820    9.8081 C.3     1  UNL1        0.0314
     24 C          64.3249   83.1735   10.3589 C.3     1  UNL1        0.0051
     25 C          64.3787   82.9160   11.8357 C.3     1  UNL1        0.0322
     26 C          63.4685   83.6671   12.7616 C.3     1  UNL1        0.1421
     27 O          62.5045   84.6756   12.2108 O.3     1  UNL1       -0.3545
@<TRIPOS>BOND
     1     9    10    2
     2    10    11    2
     3    10    12    1
     4    12    14    1
     5    14    15   ar
     6    15    16   ar
     7    16    17   ar
     8    17    18   ar
     9    10     1    1
    10     1     2   ar
    11     2     3   ar
    12     3     4    1
    13     3     5   ar
    14     5    19    1
    15    19    21    1
    16    21    22    1
    17    22    23    1
    18    23    24    1
    19    24    25    1
    20    25    26    1
    21    26    27    1
    22     5     6   ar
    23     6     7   ar
    24     7     8    1
    25    18    14   ar
    26     7     1   ar
    27    27    22    1
    28    12    13    1
    29    19    20    1
@<TRIPOS>MOLECULE
*****
 27 29 0 0 0
SMALL
GASTEIGER

@<TRIPOS>ATOM
      1 C          62.5628   89.7601   11.9257 C.ar    1  UNL1        0.1534
      2 C          63.0771   89.7367   13.3345 C.ar    1  UNL1        0.0351
      3 C          64.1453   90.7003   13.7590 C.ar    1  UNL1        0.0722
      4 CL         64.6598   90.6769   15.1679 Cl      1  UNL1       -0.0809
      5 C          64.6992   91.6874   12.7746 C.ar    1  UNL1        0.0577
      6 C          64.1848   91.7109   11.3658 C.ar    1  UNL1        0.0462
      7 C          63.1166   90.7472   10.9413 C.ar    1  UNL1        0.1602
      8 F          62.6022   90.7706    9.5324 F       1  UNL1       -0.2027
      9 O          60.4683   89.6135   12.2287 O.2     1  UNL1       -0.1498
     10 S          61.4945   88.7964   11.5011 S.O2    1  UNL1        0.0772
     11 O          62.5206   87.9794   10.7735 O.2     1  UNL1       -0.1498
     12 N          60.4262   87.8328   11.0766 N.pl3   1  UNL1       -0.1936
     13 H          60.0030   87.2429   11.7415 H       1  UNL1        0.1758
     14 C          60.0027   87.7681    9.6390 C.ar    1  UNL1        0.1786
     15 N          59.6682   86.5222    8.8737 N.ar    1  UNL1       -0.2214
     16 C          59.2982   86.9220    7.4761 C.ar    1  UNL1        0.1079
     17 C          59.4040   88.4151    7.3777 C.ar    1  UNL1        0.0588
     18 S          59.8395   88.9380    8.7145 S.2     1  UNL1       -0.0497
     19 N          65.7675   92.6511   13.1992 N.pl3   1  UNL1       -0.3300
     20 H          65.5539   93.3761   13.8301 H       1  UNL1        0.1469
     21 C          67.1610   92.5102   12.6625 C.3     1  UNL1        0.1170
     22 C          67.4799   92.9751   11.2724 C.3     1  UNL1        0.1346
     23 C          68.1420   92.0415   10.3028 C.3     1  UNL1        0.0314
     24 C          68.4609   92.5064    8.9128 C.3     1  UNL1        0.0051
     25 C          68.1177   93.9048    8.4923 C.3     1  UNL1        0.0322
     26 C          67.4556   94.8383    9.4619 C.3     1  UNL1        0.1421
     27 O          67.1367   94.3734   10.8519 O.3     1  UNL1       -0.3545
@<TRIPOS>BOND
     1     9    10    2
     2    10    11    2
     3    10    12    1
     4    12    14    1
     5    14    15   ar
     6    15    16   ar
     7    16    17   ar
     8    17    18   ar
     9    10     1    1
    10     1     2   ar
    11     2     3   ar
    12     3     4    1
    13     3     5   ar
    14     5    19    1
    15    19    21    1
    16    21    22    1
    17    22    23    1
    18    23    24    1
    19    24    25    1
    20    25    26    1
    21    26    27    1
    22     5     6   ar
    23     6     7   ar
    24     7     8    1
    25    18    14   ar
    26     7     1   ar
    27    27    22    1
    28    12    13    1
    29    19    20    1
@<TRIPOS>MOLECULE
*****
 27 29 0 0 0
SMALL
GASTEIGER

@<TRIPOS>ATOM
      1 C          65.7493   92.5333   12.2093 C.ar    1  UNL1        0.1534
      2 C          64.5082   91.9582   11.5938 C.ar    1  UNL1        0.0351
      3 C          63.7704   90.8519   12.2877 C.ar    1  UNL1        0.0722
      4 CL         62.5292   90.2767   11.6722 Cl      1  UNL1       -0.0809
      5 C          64.2736   90.3206   13.5971 C.ar    1  UNL1        0.0577
      6 C          65.5147   90.8958   14.2126 C.ar    1  UNL1        0.0462
      7 C          66.2526   92.0021   13.5187 C.ar    1  UNL1        0.1602
      8 F          67.4938   92.5773   14.1342 F       1  UNL1       -0.2027
      9 O          66.1701   94.5646   12.6528 O.2     1  UNL1       -0.1498
     10 S          66.4872   93.6397   11.5154 S.O2    1  UNL1        0.0772
     11 O          66.8044   92.7148   10.3779 O.2     1  UNL1       -0.1498
     12 N          67.2251   94.7461   10.8215 N.pl3   1  UNL1       -0.1936
     13 H          68.1449   94.9698   11.0921 H       1  UNL1        0.1758
     14 C          66.5616   95.5117    9.7153 C.ar    1  UNL1        0.1786
     15 N          65.2466   96.2278    9.8041 N.ar    1  UNL1       -0.2214
     16 C          64.9689   96.8544    8.4698 C.ar    1  UNL1        0.1079
     17 C          66.1124   96.5255    7.5563 C.ar    1  UNL1        0.0588
     18 S          67.0967   95.6956    8.3261 S.2     1  UNL1       -0.0497
     19 N          63.5357   89.2142   14.2910 N.pl3   1  UNL1       -0.3300
     20 H          62.5534   89.2397   14.3510 H       1  UNL1        0.1469
     21 C          64.2945   88.0691   14.8934 C.3     1  UNL1        0.1170
     22 C          64.1747   86.6960   14.3016 C.3     1  UNL1        0.1346
     23 C          64.9442   85.5536   14.8955 C.3     1  UNL1        0.0314
     24 C          64.8243   84.1805   14.3037 C.3     1  UNL1        0.0051
     25 C          63.9350   83.9498   13.1181 C.3     1  UNL1        0.0322
     26 C          63.1655   85.0922   12.5242 C.3     1  UNL1        0.1421
     27 O          63.2853   86.4653   13.1159 O.3     1  UNL1       -0.3545
@<TRIPOS>BOND
     1     9    10    2
     2    10    11    2
     3    10    12    1
     4    12    14    1
     5    14    15   ar
     6    15    16   ar
     7    16    17   ar
     8    17    18   ar
     9    10     1    1
    10     1     2   ar
    11     2     3   ar
    12     3     4    1
    13     3     5   ar
    14     5    19    1
    15    19    21    1
    16    21    22    1
    17    22    23    1
    18    23    24    1
    19    24    25    1
    20    25    26    1
    21    26    27    1
    22     5     6   ar
    23     6     7   ar
    24     7     8    1
    25    18    14   ar
    26     7     1   ar
    27    27    22    1
    28    12    13    1
    29    19    20    1
@<TRIPOS>MOLECULE
*****
 27 29 0 0 0
SMALL
GASTEIGER

@<TRIPOS>ATOM
      1 C          63.7330   86.4137   15.3571 C.ar    1  UNL1        0.1534
      2 C          63.9262   87.1926   14.0898 C.ar    1  UNL1        0.0351
      3 C          63.7890   88.6862   14.0992 C.ar    1  UNL1        0.0722
      4 CL         63.9821   89.4651   12.8318 Cl      1  UNL1       -0.0809
      5 C          63.4587   89.4010   15.3759 C.ar    1  UNL1        0.0577
      6 C          63.2656   88.6222   16.6432 C.ar    1  UNL1        0.0462
      7 C          63.4027   87.1286   16.6338 C.ar    1  UNL1        0.1602
      8 F          63.2096   86.3497   17.9011 F       1  UNL1       -0.2027
      9 O          65.3171   85.0552   14.9760 O.2     1  UNL1       -0.1498
     10 S          63.8702   84.9200   15.3478 S.O2    1  UNL1        0.0772
     11 O          62.4234   84.7848   15.7196 O.2     1  UNL1       -0.1498
     12 N          64.0074   83.4264   15.3384 N.pl3   1  UNL1       -0.1936
     13 H          64.4435   82.9674   16.0924 H       1  UNL1        0.1758
     14 C          63.4802   82.6319   14.1804 C.ar    1  UNL1        0.1786
     15 N          63.0805   81.1865   14.2118 N.ar    1  UNL1       -0.2214
     16 C          62.6134   80.8048   12.8385 C.ar    1  UNL1        0.1079
     17 C          62.7243   82.0144   11.9582 C.ar    1  UNL1        0.0588
     18 S          63.2601   83.1437   12.7877 S.2     1  UNL1       -0.0497
     19 N          63.3215   90.8948   15.3852 N.pl3   1  UNL1       -0.3300
     20 H          62.6269   91.3287   14.8389 H       1  UNL1        0.1469
     21 C          64.2427   91.7273   16.2268 C.3     1  UNL1        0.1170
     22 C          65.6245   92.0449   15.7369 C.3     1  UNL1        0.1346
     23 C          66.0822   91.5367   14.4020 C.3     1  UNL1        0.0314
     24 C          67.4639   91.8543   13.9122 C.3     1  UNL1        0.0051
     25 C          68.3879   92.6801   14.7573 C.3     1  UNL1        0.0322
     26 C          67.9302   93.1883   16.0923 C.3     1  UNL1        0.1421
     27 O          66.5485   92.8707   16.5821 O.3     1  UNL1       -0.3545
@<TRIPOS>BOND
     1     9    10    2
     2    10    11    2
     3    10    12    1
     4    12    14    1
     5    14    15   ar
     6    15    16   ar
     7    16    17   ar
     8    17    18   ar
     9    10     1    1
    10     1     2   ar
    11     2     3   ar
    12     3     4    1
    13     3     5   ar
    14     5    19    1
    15    19    21    1
    16    21    22    1
    17    22    23    1
    18    23    24    1
    19    24    25    1
    20    25    26    1
    21    26    27    1
    22     5     6   ar
    23     6     7   ar
    24     7     8    1
    25    18    14   ar
    26     7     1   ar
    27    27    22    1
    28    12    13    1
    29    19    20    1
@<TRIPOS>MOLECULE
*****
 27 29 0 0 0
SMALL
GASTEIGER

@<TRIPOS>ATOM
      1 C          64.6785   91.6364   11.9012 C.ar    1  UNL1        0.1534
      2 C          63.7106   91.5362   10.7596 C.ar    1  UNL1        0.0351
      3 C          62.6765   90.4498   10.7463 C.ar    1  UNL1        0.0722
      4 CL         61.7086   90.3496    9.6047 Cl      1  UNL1       -0.0809
      5 C          62.6102   89.4635   11.8745 C.ar    1  UNL1        0.0577
      6 C          63.5781   89.5637   13.0161 C.ar    1  UNL1        0.0462
      7 C          64.6122   90.6501   13.0294 C.ar    1  UNL1        0.1602
      8 F          65.5801   90.7503   14.1710 F       1  UNL1       -0.2027
      9 O          65.2889   93.1092   13.3006 O.2     1  UNL1       -0.1498
     10 S          65.7127   92.7228   11.9146 S.O2    1  UNL1        0.0772
     11 O          66.1365   92.3365   10.5286 O.2     1  UNL1       -0.1498
     12 N          66.7468   93.8093   11.9280 N.pl3   1  UNL1       -0.1936
     13 H          67.4061   93.8523   12.6578 H       1  UNL1        0.1758
     14 C          66.7764   94.8302   10.8294 C.ar    1  UNL1        0.1786
     15 N          67.7663   94.8857    9.7038 N.ar    1  UNL1       -0.2214
     16 C          67.4230   96.0647    8.8423 C.ar    1  UNL1        0.1079
     17 C          66.2208   96.7378    9.4354 C.ar    1  UNL1        0.0588
     18 S          65.8212   95.9748   10.6635 S.2     1  UNL1       -0.0497
     19 N          61.5760   88.3771   11.8612 N.pl3   1  UNL1       -0.3300
     20 H          60.7738   88.4541   12.4266 H       1  UNL1        0.1469
     21 C          61.7642   87.1732   10.9864 C.3     1  UNL1        0.1170
     22 C          62.5020   85.9755   11.5072 C.3     1  UNL1        0.1346
     23 C          62.6954   84.7740   10.6303 C.3     1  UNL1        0.0314
     24 C          63.4331   83.5764   11.1511 C.3     1  UNL1        0.0051
     25 C          63.9774   83.5802   12.5489 C.3     1  UNL1        0.0322
     26 C          63.7840   84.7817   13.4258 C.3     1  UNL1        0.1421
     27 O          63.0462   85.9793   12.9050 O.3     1  UNL1       -0.3545
@<TRIPOS>BOND
     1     9    10    2
     2    10    11    2
     3    10    12    1
     4    12    14    1
     5    14    15   ar
     6    15    16   ar
     7    16    17   ar
     8    17    18   ar
     9    10     1    1
    10     1     2   ar
    11     2     3   ar
    12     3     4    1
    13     3     5   ar
    14     5    19    1
    15    19    21    1
    16    21    22    1
    17    22    23    1
    18    23    24    1
    19    24    25    1
    20    25    26    1
    21    26    27    1
    22     5     6   ar
    23     6     7   ar
    24     7     8    1
    25    18    14   ar
    26     7     1   ar
    27    27    22    1
    28    12    13    1
    29    19    20    1
@<TRIPOS>MOLECULE
*****
 27 29 0 0 0
SMALL
GASTEIGER

@<TRIPOS>ATOM
      1 C          64.7345   91.6170   11.9297 C.ar    1  UNL1        0.1534
      2 C          63.7825   91.4756   10.7792 C.ar    1  UNL1        0.0351
      3 C          62.7990   90.3434   10.7545 C.ar    1  UNL1        0.0722
      4 CL         61.8469   90.2020    9.6040 Cl      1  UNL1       -0.0809
      5 C          62.7674   89.3526   11.8802 C.ar    1  UNL1        0.0577
      6 C          63.7194   89.4940   13.0307 C.ar    1  UNL1        0.0462
      7 C          64.7030   90.6262   13.0554 C.ar    1  UNL1        0.1602
      8 F          65.6551   90.7677   14.2059 F       1  UNL1       -0.2027
      9 O          65.2384   93.1361   13.3219 O.2     1  UNL1       -0.1498
     10 S          65.7182   92.7493   11.9544 S.O2    1  UNL1        0.0772
     11 O          66.1980   92.3625   10.5870 O.2     1  UNL1       -0.1498
     12 N          66.7017   93.8815   11.9793 N.pl3   1  UNL1       -0.1936
     13 H          67.3377   93.9648   12.7261 H       1  UNL1        0.1758
     14 C          66.7163   94.8869   10.8661 C.ar    1  UNL1        0.1786
     15 N          67.7202   94.9563    9.7537 N.ar    1  UNL1       -0.2214
     16 C          67.3538   96.1117    8.8701 C.ar    1  UNL1        0.1079
     17 C          66.1235   96.7564    9.4364 C.ar    1  UNL1        0.0588
     18 S          65.7295   95.9994   10.6700 S.2     1  UNL1       -0.0497
     19 N          61.7838   88.2203   11.8554 N.pl3   1  UNL1       -0.3300
     20 H          60.8667   88.3577   12.1860 H       1  UNL1        0.1469
     21 C          62.1975   86.8789   11.3270 C.3     1  UNL1        0.1170
     22 C          61.7563   86.4421    9.9614 C.3     1  UNL1        0.1346
     23 C          62.7014   85.6887    9.0732 C.3     1  UNL1        0.0314
     24 C          62.2601   85.2519    7.7077 C.3     1  UNL1        0.0051
     25 C          60.8738   85.5686    7.2306 C.3     1  UNL1        0.0322
     26 C          59.9286   86.3221    8.1188 C.3     1  UNL1        0.1421
     27 O          60.3699   86.7588    9.4843 O.3     1  UNL1       -0.3545
@<TRIPOS>BOND
     1     9    10    2
     2    10    11    2
     3    10    12    1
     4    12    14    1
     5    14    15   ar
     6    15    16   ar
     7    16    17   ar
     8    17    18   ar
     9    10     1    1
    10     1     2   ar
    11     2     3   ar
    12     3     4    1
    13     3     5   ar
    14     5    19    1
    15    19    21    1
    16    21    22    1
    17    22    23    1
    18    23    24    1
    19    24    25    1
    20    25    26    1
    21    26    27    1
    22     5     6   ar
    23     6     7   ar
    24     7     8    1
    25    18    14   ar
    26     7     1   ar
    27    27    22    1
    28    12    13    1
    29    19    20    1
@<TRIPOS>MOLECULE
*****
 27 29 0 0 0
SMALL
GASTEIGER

@<TRIPOS>ATOM
      1 C          64.8920   91.7998   12.0369 C.ar    1  UNL1        0.1534
      2 C          64.9428   90.8257   13.1764 C.ar    1  UNL1        0.0351
      3 C          64.0021   89.6578   13.2072 C.ar    1  UNL1        0.0722
      4 CL         64.0529   88.6837   14.3468 Cl      1  UNL1       -0.0809
      5 C          63.0105   89.4640   12.0985 C.ar    1  UNL1        0.0577
      6 C          62.9597   90.4380   10.9590 C.ar    1  UNL1        0.0462
      7 C          63.9004   91.6059   10.9281 C.ar    1  UNL1        0.1602
      8 F          63.8496   92.5801    9.7886 F       1  UNL1       -0.2027
      9 O          65.3446   93.3966   13.3580 O.2     1  UNL1       -0.1498
     10 S          65.8327   92.9678   12.0060 S.O2    1  UNL1        0.0772
     11 O          66.3208   92.5390   10.6541 O.2     1  UNL1       -0.1498
     12 N          66.7734   94.1357   11.9752 N.pl3   1  UNL1       -0.1936
     13 H          67.4128   94.2723   12.7112 H       1  UNL1        0.1758
     14 C          66.7398   95.0956   10.8230 C.ar    1  UNL1        0.1786
     15 N          67.7654   95.2016    9.7336 N.ar    1  UNL1       -0.2214
     16 C          67.3342   96.2895    8.7952 C.ar    1  UNL1        0.1079
     17 C          66.0420   96.8559    9.3047 C.ar    1  UNL1        0.0588
     18 S          65.6747   96.1180   10.5580 S.2     1  UNL1       -0.0497
     19 N          62.0698   88.2960   12.1294 N.pl3   1  UNL1       -0.3300
     20 H          61.4116   88.2131   12.8568 H       1  UNL1        0.1469
     21 C          62.1318   87.2543   11.0519 C.3     1  UNL1        0.1170
     22 C          61.2199   87.3481    9.8645 C.3     1  UNL1        0.1346
     23 C          60.8728   86.1139    9.0861 C.3     1  UNL1        0.0314
     24 C          59.9609   86.2077    7.8988 C.3     1  UNL1        0.0051
     25 C          59.3962   87.5358    7.4900 C.3     1  UNL1        0.0322
     26 C          59.7433   88.7701    8.2685 C.3     1  UNL1        0.1421
     27 O          60.6551   88.6763    9.4557 O.3     1  UNL1       -0.3545
@<TRIPOS>BOND
     1     9    10    2
     2    10    11    2
     3    10    12    1
     4    12    14    1
     5    14    15   ar
     6    15    16   ar
     7    16    17   ar
     8    17    18   ar
     9    10     1    1
    10     1     2   ar
    11     2     3   ar
    12     3     4    1
    13     3     5   ar
    14     5    19    1
    15    19    21    1
    16    21    22    1
    17    22    23    1
    18    23    24    1
    19    24    25    1
    20    25    26    1
    21    26    27    1
    22     5     6   ar
    23     6     7   ar
    24     7     8    1
    25    18    14   ar
    26     7     1   ar
    27    27    22    1
    28    12    13    1
    29    19    20    1
@<TRIPOS>MOLECULE
*****
 27 29 0 0 0
SMALL
GASTEIGER

@<TRIPOS>ATOM
      1 C          63.7711   86.5969   14.4640 C.ar    1  UNL1        0.1534
      2 C          63.8517   87.6419   15.5371 C.ar    1  UNL1        0.0351
      3 C          63.7239   89.0934   15.1815 C.ar    1  UNL1        0.0722
      4 CL         63.8045   90.1385   16.2547 Cl      1  UNL1       -0.0809
      5 C          63.5155   89.5001   13.7529 C.ar    1  UNL1        0.0577
      6 C          63.4349   88.4552   12.6797 C.ar    1  UNL1        0.0462
      7 C          63.5627   87.0036   13.0353 C.ar    1  UNL1        0.1602
      8 F          63.4820   85.9586   11.9622 F       1  UNL1       -0.2027
      9 O          62.4174   85.0694   15.0422 O.2     1  UNL1       -0.1498
     10 S          63.8989   85.1453   14.8196 S.O2    1  UNL1        0.0772
     11 O          65.3803   85.2211   14.5970 O.2     1  UNL1       -0.1498
     12 N          64.0266   83.6936   15.1751 N.pl3   1  UNL1       -0.1936
     13 H          64.5068   83.4274   15.9923 H       1  UNL1        0.1758
     14 C          63.4227   82.6476   14.2856 C.ar    1  UNL1        0.1786
     15 N          62.2760   81.7466   14.6367 N.ar    1  UNL1       -0.2214
     16 C          62.0042   80.8611   13.4568 C.ar    1  UNL1        0.1079
     17 C          62.9830   81.2148   12.3765 C.ar    1  UNL1        0.0588
     18 S          63.8597   82.3190   12.8888 S.2     1  UNL1       -0.0497
     19 N          63.3877   90.9518   13.3973 N.pl3   1  UNL1       -0.3300
     20 H          62.5227   91.4101   13.5024 H       1  UNL1        0.1469
     21 C          64.5778   91.7053   12.8816 C.3     1  UNL1        0.1170
     22 C          65.7207   92.0218   13.8002 C.3     1  UNL1        0.1346
     23 C          67.1335   91.8511   13.3259 C.3     1  UNL1        0.0314
     24 C          68.2763   92.1675   14.2444 C.3     1  UNL1        0.0051
     25 C          68.0064   92.6547   15.6372 C.3     1  UNL1        0.0322
     26 C          66.5937   92.8254   16.1114 C.3     1  UNL1        0.1421
     27 O          65.4508   92.5089   15.1929 O.3     1  UNL1       -0.3545
@<TRIPOS>BOND
     1     9    10    2
     2    10    11    2
     3    10    12    1
     4    12    14    1
     5    14    15   ar
     6    15    16   ar
     7    16    17   ar
     8    17    18   ar
     9    10     1    1
    10     1     2   ar
    11     2     3   ar
    12     3     4    1
    13     3     5   ar
    14     5    19    1
    15    19    21    1
    16    21    22    1
    17    22    23    1
    18    23    24    1
    19    24    25    1
    20    25    26    1
    21    26    27    1
    22     5     6   ar
    23     6     7   ar
    24     7     8    1
    25    18    14   ar
    26     7     1   ar
    27    27    22    1
    28    12    13    1
    29    19    20    1
