@<TRIPOS>MOLECULE
*****
 44 47 0 0 0
SMALL
GASTEIGER

@<TRIPOS>ATOM
      1 C          65.2090   85.3833   14.1878 C.3     1  UNL1        0.1484
      2 O          66.6313   85.2162   14.6339 O.3     1  UNL1       -0.3810
      3 H          66.9969   86.0805   14.8794 H       1  UNL1        0.2105
      4 C          64.5815   86.7458   14.1770 C.3     1  UNL1        0.1245
      5 C          63.7710   88.8196   15.5157 C.2     1  UNL1        0.2492
      6 O          63.2788   89.4288   16.7950 O.2     1  UNL1       -0.2699
      7 N          64.0894   87.3550   15.4563 N.am    1  UNL1       -0.2735
      8 C          65.9652   93.0391   11.2568 C.ar    1  UNL1        0.2924
      9 N          64.7191   92.3483   10.7877 N.ar    1  UNL1       -0.1946
     10 C          64.2923   91.3859   11.8562 C.ar    1  UNL1        0.1202
     11 C          63.1362   90.4345   11.9465 C.ar    1  UNL1        0.0225
     12 C          62.9624   89.5791   13.1664 C.ar    1  UNL1        0.0063
     13 C          63.9448   89.6751   14.2958 C.ar    1  UNL1        0.0567
     14 C          65.1010   90.6264   14.2055 C.ar    1  UNL1        0.0437
     15 C          65.2747   91.4818   12.9856 C.ar    1  UNL1        0.1662
     16 O          66.3086   92.5035   12.6152 O.2     1  UNL1       -0.4237
     17 N          66.7330   94.0822   10.5003 N.pl3   1  UNL1       -0.2619
     18 C          66.5478   95.5343   10.8274 C.3     1  UNL1        0.1166
     19 C          68.3347   92.3214    9.4592 C.3     1  UNL1        0.0233
     20 C          67.6862   93.6733    9.4167 C.3     1  UNL1        0.0952
     21 C          63.9155   86.4996   16.6762 C.3     1  UNL1        0.0937
     22 C          62.6044   86.4897   17.4047 C.3     1  UNL1        0.0199
     23 C          62.5353   86.9489   18.8309 C.3     1  UNL1        0.0018
     24 C          61.3621   86.0206   16.7068 C.3     1  UNL1        0.0018
     25 C          64.4141   84.1881   13.7526 C.3     1  UNL1        0.1075
     26 N          64.1697   83.9407   12.2934 N.am    1  UNL1       -0.2695
     27 C          62.9603   84.5252   11.6258 C.2     1  UNL1        0.4020
     28 O          61.9952   85.3570   12.4175 O.2     1  UNL1       -0.2264
     29 H          64.8031   83.3948   11.7738 H       1  UNL1        0.1528
     30 O          62.7159   84.2779   10.1666 O.3     1  UNL1       -0.4296
     31 C          62.9232   85.3828    9.1737 C.3     1  UNL1        0.2382
     32 C          61.8514   86.4103    8.9605 C.ar    1  UNL1        0.0405
     33 C          60.6900   86.1071    8.0609 C.ar    1  UNL1        0.0025
     34 C          59.6182   87.1347    7.8477 C.ar    1  UNL1        0.0205
     35 C          59.7078   88.4654    8.5341 C.ar    1  UNL1        0.0989
     36 N          60.8692   88.7687    9.4336 N.ar    1  UNL1       -0.2425
     37 C          61.9410   87.7412    9.6468 C.ar    1  UNL1        0.0982
     38 C          63.8635   83.2402   14.7764 C.3     1  UNL1        0.0485
     39 C          63.0366   82.0660   14.3435 C.ar    1  UNL1       -0.0204
     40 C          61.5483   82.0878   14.5284 C.ar    1  UNL1       -0.0042
     41 C          60.7213   80.9136   14.0954 C.ar    1  UNL1       -0.0003
     42 C          61.3828   79.7175   13.4775 C.ar    1  UNL1       -0.0000
     43 C          62.8712   79.6957   13.2926 C.ar    1  UNL1       -0.0003
     44 C          63.6981   80.8699   13.7256 C.ar    1  UNL1       -0.0042
@<TRIPOS>BOND
     1    19    20    1
     2    20    17    1
     3    17    18    1
     4    17     8    1
     5     8     9   ar
     6     9    10   ar
     7    10    11   ar
     8    11    12   ar
     9    12    13   ar
    10    13     5    1
    11     5     6    2
    12     5     7   am
    13     7    21    1
    14    21    22    1
    15    22    23    1
    16    22    24    1
    17     7     4    1
    18     4     1    1
    19     1     2    1
    20     1    25    1
    21    25    38    1
    22    38    39    1
    23    39    40   ar
    24    40    41   ar
    25    41    42   ar
    26    42    43   ar
    27    43    44   ar
    28    25    26    1
    29    26    27   am
    30    27    28    2
    31    27    30    1
    32    30    31    1
    33    31    32    1
    34    32    33   ar
    35    33    34   ar
    36    34    35   ar
    37    35    36   ar
    38    36    37   ar
    39    13    14   ar
    40    14    15   ar
    41    15    16   ar
    42    16     8   ar
    43    15    10   ar
    44    44    39   ar
    45    37    32   ar
    46     2     3    1
    47    26    29    1
@<TRIPOS>MOLECULE
*****
 44 47 0 0 0
SMALL
GASTEIGER

@<TRIPOS>ATOM
      1 C          64.1643   85.3381   13.7468 C.3     1  UNL1        0.1484
      2 O          65.3328   84.3986   13.7900 O.3     1  UNL1       -0.3810
      3 H          66.1411   84.8968   13.9879 H       1  UNL1        0.2105
      4 C          64.3706   86.8034   13.9931 C.3     1  UNL1        0.1245
      5 C          63.8167   88.8796   15.4533 C.2     1  UNL1        0.2492
      6 O          63.4580   89.4744   16.7828 O.2     1  UNL1       -0.2699
      7 N          64.0119   87.3982   15.3226 N.am    1  UNL1       -0.2735
      8 C          66.0212   93.1457   11.2465 C.ar    1  UNL1        0.2924
      9 N          64.7326   92.5187   10.8033 N.ar    1  UNL1       -0.1946
     10 C          64.3069   91.5397   11.8570 C.ar    1  UNL1        0.1202
     11 C          63.1180   90.6311   11.9613 C.ar    1  UNL1        0.0225
     12 C          62.9546   89.7445   13.1600 C.ar    1  UNL1        0.0063
     13 C          63.9801   89.7664   14.2545 C.ar    1  UNL1        0.0567
     14 C          65.1690   90.6749   14.1502 C.ar    1  UNL1        0.0437
     15 C          65.3324   91.5616   12.9515 C.ar    1  UNL1        0.1662
     16 O          66.3919   92.5542   12.5742 O.2     1  UNL1       -0.4237
     17 N          66.8020   94.1822   10.4942 N.pl3   1  UNL1       -0.2619
     18 C          66.5888   95.6384   10.7839 C.3     1  UNL1        0.1166
     19 C          68.2786   92.3431    9.4046 C.3     1  UNL1        0.0233
     20 C          67.7960   93.7625    9.4521 C.3     1  UNL1        0.0952
     21 C          63.8484   86.5114   16.5214 C.3     1  UNL1        0.0937
     22 C          62.5708   86.5401   17.3068 C.3     1  UNL1        0.0199
     23 C          62.5902   86.9241   18.7567 C.3     1  UNL1        0.0018
     24 C          61.2738   86.1848   16.6423 C.3     1  UNL1        0.0018
     25 C          62.7896   84.8125   13.4573 C.3     1  UNL1        0.1075
     26 N          61.9359   85.4772   12.4183 N.am    1  UNL1       -0.2695
     27 C          62.2105   85.2460   10.9619 C.2     1  UNL1        0.4020
     28 O          63.3388   84.3501   10.5445 O.2     1  UNL1       -0.2264
     29 H          61.1953   86.0653   12.6923 H       1  UNL1        0.1528
     30 O          61.3568   85.9107    9.9229 O.3     1  UNL1       -0.4296
     31 C          61.5758   87.3555    9.5846 C.3     1  UNL1        0.2382
     32 C          60.7600   88.4164   10.2620 C.ar    1  UNL1        0.0405
     33 C          60.0489   88.1097   11.5467 C.ar    1  UNL1        0.0025
     34 C          59.2331   89.1706   12.2241 C.ar    1  UNL1        0.0205
     35 C          59.1284   90.5382   11.6170 C.ar    1  UNL1        0.0989
     36 N          59.8395   90.8450   10.3324 N.ar    1  UNL1       -0.2425
     37 C          60.6553   89.7841    9.6549 C.ar    1  UNL1        0.0982
     38 C          62.2685   83.6223   14.2068 C.3     1  UNL1        0.0485
     39 C          62.3524   82.2552   13.5951 C.ar    1  UNL1       -0.0204
     40 C          63.0651   82.0601   12.2898 C.ar    1  UNL1       -0.0042
     41 C          63.1490   80.6930   11.6781 C.ar    1  UNL1       -0.0003
     42 C          62.5201   79.5211   12.3717 C.ar    1  UNL1       -0.0000
     43 C          61.8074   79.7163   13.6770 C.ar    1  UNL1       -0.0003
     44 C          61.7235   81.0833   14.2887 C.ar    1  UNL1       -0.0042
@<TRIPOS>BOND
     1    19    20    1
     2    20    17    1
     3    17    18    1
     4    17     8    1
     5     8     9   ar
     6     9    10   ar
     7    10    11   ar
     8    11    12   ar
     9    12    13   ar
    10    13     5    1
    11     5     6    2
    12     5     7   am
    13     7    21    1
    14    21    22    1
    15    22    23    1
    16    22    24    1
    17     7     4    1
    18     4     1    1
    19     1     2    1
    20     1    25    1
    21    25    38    1
    22    38    39    1
    23    39    40   ar
    24    40    41   ar
    25    41    42   ar
    26    42    43   ar
    27    43    44   ar
    28    25    26    1
    29    26    27   am
    30    27    28    2
    31    27    30    1
    32    30    31    1
    33    31    32    1
    34    32    33   ar
    35    33    34   ar
    36    34    35   ar
    37    35    36   ar
    38    36    37   ar
    39    13    14   ar
    40    14    15   ar
    41    15    16   ar
    42    16     8   ar
    43    15    10   ar
    44    44    39   ar
    45    37    32   ar
    46     2     3    1
    47    26    29    1
@<TRIPOS>MOLECULE
*****
 44 47 0 0 0
SMALL
GASTEIGER

@<TRIPOS>ATOM
      1 C          62.3219   85.6528   11.0927 C.3     1  UNL1        0.1484
      2 O          61.1356   86.0093   11.9385 O.3     1  UNL1       -0.3810
      3 H          60.6307   86.7156   11.5061 H       1  UNL1        0.2105
      4 C          62.5611   86.3687    9.7964 C.3     1  UNL1        0.1245
      5 C          60.9201   88.2798    9.1603 C.2     1  UNL1        0.2492
      6 O          59.7581   88.7797    8.3541 O.2     1  UNL1       -0.2699
      7 N          61.3992   86.8686    8.9902 N.am    1  UNL1       -0.2735
      8 C          64.8650   92.5107   11.8610 C.ar    1  UNL1        0.2924
      9 N          63.8363   91.9934   12.8223 N.ar    1  UNL1       -0.1946
     10 C          62.9683   91.0137   12.0895 C.ar    1  UNL1        0.1202
     11 C          61.7933   90.1905   12.5273 C.ar    1  UNL1        0.0225
     12 C          61.1106   89.2793   11.5509 C.ar    1  UNL1        0.0063
     13 C          61.6029   89.1911   10.1368 C.ar    1  UNL1        0.0567
     14 C          62.7779   90.0143    9.6990 C.ar    1  UNL1        0.0437
     15 C          63.4606   90.9256   10.6754 C.ar    1  UNL1        0.1662
     16 O          64.6328   91.8508   10.5341 O.2     1  UNL1       -0.4237
     17 N          65.9376   93.5121   12.1720 N.pl3   1  UNL1       -0.2619
     18 C          66.3207   94.5422   11.1511 C.3     1  UNL1        0.1166
     19 C          67.3153   92.2331   13.9653 C.3     1  UNL1        0.0233
     20 C          66.6271   93.4835   13.5038 C.3     1  UNL1        0.0952
     21 C          60.7164   85.9573    8.0138 C.3     1  UNL1        0.0937
     22 C          61.5309   85.0641    7.1257 C.3     1  UNL1        0.0199
     23 C          60.8794   84.3521    5.9774 C.3     1  UNL1        0.0018
     24 C          62.9971   84.8829    7.3858 C.3     1  UNL1        0.0018
     25 C          63.2690   84.5803   11.5430 C.3     1  UNL1        0.1075
     26 N          64.0040   84.7261   12.8425 N.am    1  UNL1       -0.2695
     27 C          63.2498   84.6920   14.1386 C.2     1  UNL1        0.4020
     28 O          61.7606   84.5122   14.1354 O.2     1  UNL1       -0.2264
     29 H          64.9814   84.8441   12.8447 H       1  UNL1        0.1528
     30 O          63.9848   84.8378   15.4381 O.3     1  UNL1       -0.4296
     31 C          63.5260   85.8452   16.4504 C.3     1  UNL1        0.2382
     32 C          63.6431   87.3113   16.1557 C.ar    1  UNL1        0.0405
     33 C          64.4271   87.7766   14.9645 C.ar    1  UNL1        0.0025
     34 C          64.5442   89.2427   14.6699 C.ar    1  UNL1        0.0205
     35 C          63.8773   90.2435   15.5663 C.ar    1  UNL1        0.0989
     36 N          63.0934   89.7782   16.7575 N.ar    1  UNL1       -0.2425
     37 C          62.9763   88.3121   17.0522 C.ar    1  UNL1        0.0982
     38 C          63.4812   83.3621   10.6939 C.3     1  UNL1        0.0485
     39 C          63.1344   82.0047   11.2298 C.ar    1  UNL1       -0.0204
     40 C          62.7495   81.8430   12.6705 C.ar    1  UNL1       -0.0042
     41 C          62.4027   80.4856   13.2064 C.ar    1  UNL1       -0.0003
     42 C          62.4408   79.2899   12.3015 C.ar    1  UNL1       -0.0000
     43 C          62.8256   79.4516   10.8608 C.ar    1  UNL1       -0.0003
     44 C          63.1724   80.8090   10.3249 C.ar    1  UNL1       -0.0042
@<TRIPOS>BOND
     1    19    20    1
     2    20    17    1
     3    17    18    1
     4    17     8    1
     5     8     9   ar
     6     9    10   ar
     7    10    11   ar
     8    11    12   ar
     9    12    13   ar
    10    13     5    1
    11     5     6    2
    12     5     7   am
    13     7    21    1
    14    21    22    1
    15    22    23    1
    16    22    24    1
    17     7     4    1
    18     4     1    1
    19     1     2    1
    20     1    25    1
    21    25    38    1
    22    38    39    1
    23    39    40   ar
    24    40    41   ar
    25    41    42   ar
    26    42    43   ar
    27    43    44   ar
    28    25    26    1
    29    26    27   am
    30    27    28    2
    31    27    30    1
    32    30    31    1
    33    31    32    1
    34    32    33   ar
    35    33    34   ar
    36    34    35   ar
    37    35    36   ar
    38    36    37   ar
    39    13    14   ar
    40    14    15   ar
    41    15    16   ar
    42    16     8   ar
    43    15    10   ar
    44    44    39   ar
    45    37    32   ar
    46     2     3    1
    47    26    29    1
@<TRIPOS>MOLECULE
*****
 44 47 0 0 0
SMALL
GASTEIGER

@<TRIPOS>ATOM
      1 C          62.6777   89.7298   13.0932 C.3     1  UNL1        0.1484
      2 O          61.3896   90.0036   13.8113 O.3     1  UNL1       -0.3810
      3 H          60.6453   89.7059   13.2652 H       1  UNL1        0.2105
      4 C          62.6589   89.0863   11.7383 C.3     1  UNL1        0.1245
      5 C          60.9409   87.9855   10.1301 C.2     1  UNL1        0.2492
      6 O          59.7177   88.0882    9.2679 O.2     1  UNL1       -0.2699
      7 N          61.4358   89.1890   10.8761 N.am    1  UNL1       -0.2735
      8 C          63.2935   82.4561   12.2861 C.ar    1  UNL1        0.2924
      9 N          63.7305   82.7552   10.8827 N.ar    1  UNL1       -0.1946
     10 C          63.1255   84.0668   10.4782 C.ar    1  UNL1        0.1202
     11 C          63.2083   84.8614    9.2087 C.ar    1  UNL1        0.0225
     12 C          62.4801   86.1676    9.0927 C.ar    1  UNL1        0.0063
     13 C          61.6691   86.6792   10.2462 C.ar    1  UNL1        0.0567
     14 C          61.5863   85.8847   11.5157 C.ar    1  UNL1        0.0437
     15 C          62.3146   84.5785   11.6317 C.ar    1  UNL1        0.1662
     16 O          62.4184   83.5830   12.7490 O.2     1  UNL1       -0.4237
     17 N          63.6662   81.2432   13.0861 N.pl3   1  UNL1       -0.2619
     18 C          65.0388   81.1293   13.6801 C.3     1  UNL1        0.1166
     19 C          61.3050   80.4613   13.8365 C.3     1  UNL1        0.0233
     20 C          62.6662   80.1443   13.2920 C.3     1  UNL1        0.0952
     21 C          60.7076   90.4952   10.7600 C.3     1  UNL1        0.0937
     22 C          59.3992   90.6900   11.4674 C.3     1  UNL1        0.0199
     23 C          58.7589   89.5417   12.1895 C.3     1  UNL1        0.0018
     24 C          58.7313   92.0330   11.4526 C.3     1  UNL1        0.0018
     25 C          63.9846   90.0996   13.7298 C.3     1  UNL1        0.1075
     26 N          65.0302   90.8207   12.9317 N.am    1  UNL1       -0.2695
     27 C          65.6712   92.0602   13.4818 C.2     1  UNL1        0.4020
     28 O          65.2667   92.5786   14.8300 O.2     1  UNL1       -0.2264
     29 H          65.2956   90.4805   12.0468 H       1  UNL1        0.1528
     30 O          66.7167   92.7814   12.6837 O.3     1  UNL1       -0.4296
     31 C          66.5959   92.8646   11.1910 C.3     1  UNL1        0.2382
     32 C          66.6931   94.1943   10.5036 C.ar    1  UNL1        0.0405
     33 C          66.1425   95.4227   11.1654 C.ar    1  UNL1        0.0025
     34 C          66.2398   96.7524   10.4780 C.ar    1  UNL1        0.0205
     35 C          66.8876   96.8537    9.1289 C.ar    1  UNL1        0.0989
     36 N          67.4382   95.6253    8.4672 N.ar    1  UNL1       -0.2425
     37 C          67.3410   94.2956    9.1545 C.ar    1  UNL1        0.0982
     38 C          64.2460   89.7482   15.1644 C.3     1  UNL1        0.0485
     39 C          63.9306   88.3712   15.6688 C.ar    1  UNL1       -0.0204
     40 C          63.1251   88.1978   16.9222 C.ar    1  UNL1       -0.0042
     41 C          62.8097   86.8208   17.4265 C.ar    1  UNL1       -0.0003
     42 C          63.2999   85.6172   16.6776 C.ar    1  UNL1       -0.0000
     43 C          64.1054   85.7906   15.4242 C.ar    1  UNL1       -0.0003
     44 C          64.4208   87.1676   14.9198 C.ar    1  UNL1       -0.0042
@<TRIPOS>BOND
     1    19    20    1
     2    20    17    1
     3    17    18    1
     4    17     8    1
     5     8     9   ar
     6     9    10   ar
     7    10    11   ar
     8    11    12   ar
     9    12    13   ar
    10    13     5    1
    11     5     6    2
    12     5     7   am
    13     7    21    1
    14    21    22    1
    15    22    23    1
    16    22    24    1
    17     7     4    1
    18     4     1    1
    19     1     2    1
    20     1    25    1
    21    25    38    1
    22    38    39    1
    23    39    40   ar
    24    40    41   ar
    25    41    42   ar
    26    42    43   ar
    27    43    44   ar
    28    25    26    1
    29    26    27   am
    30    27    28    2
    31    27    30    1
    32    30    31    1
    33    31    32    1
    34    32    33   ar
    35    33    34   ar
    36    34    35   ar
    37    35    36   ar
    38    36    37   ar
    39    13    14   ar
    40    14    15   ar
    41    15    16   ar
    42    16     8   ar
    43    15    10   ar
    44    44    39   ar
    45    37    32   ar
    46     2     3    1
    47    26    29    1
@<TRIPOS>MOLECULE
*****
 44 47 0 0 0
SMALL
GASTEIGER

@<TRIPOS>ATOM
      1 C          62.6928   85.7991   10.2017 C.3     1  UNL1        0.1484
      2 O          62.8612   85.5533    8.7317 O.3     1  UNL1       -0.3810
      3 H          62.7714   86.3912    8.2514 H       1  UNL1        0.2105
      4 C          62.4294   87.1876   10.7047 C.3     1  UNL1        0.1245
      5 C          61.1034   89.4034   10.4192 C.2     1  UNL1        0.2492
      6 O          59.8562   90.1269   10.0058 O.2     1  UNL1       -0.2699
      7 N          61.1822   87.9110   10.2912 N.am    1  UNL1       -0.2735
      8 C          65.5457   91.8831   14.2761 C.ar    1  UNL1        0.2924
      9 N          65.6951   92.3486   12.8580 N.ar    1  UNL1       -0.1946
     10 C          64.6090   91.7105   12.0437 C.ar    1  UNL1        0.1202
     11 C          64.2613   91.8014   10.5874 C.ar    1  UNL1        0.0225
     12 C          63.0928   91.0324   10.0459 C.ar    1  UNL1        0.0063
     13 C          62.2720   90.1725   10.9608 C.ar    1  UNL1        0.0567
     14 C          62.6197   90.0816   12.4170 C.ar    1  UNL1        0.0437
     15 C          63.7882   90.8506   12.9585 C.ar    1  UNL1        0.1662
     16 O          64.3671   90.9573   14.3382 O.2     1  UNL1       -0.4237
     17 N          66.4211   92.2746   15.4295 N.pl3   1  UNL1       -0.2619
     18 C          65.8136   92.5450   16.7741 C.3     1  UNL1        0.1166
     19 C          68.6087   93.6626   15.6236 C.3     1  UNL1        0.0233
     20 C          67.9038   92.3958   15.2383 C.3     1  UNL1        0.0952
     21 C          60.0137   87.1420    9.7497 C.3     1  UNL1        0.0937
     22 C          59.7777   87.0799    8.2697 C.3     1  UNL1        0.0199
     23 C          60.0585   85.8126    7.5179 C.3     1  UNL1        0.0018
     24 C          59.2608   88.2851    7.5414 C.3     1  UNL1        0.0018
     25 C          62.7877   84.6565   11.1690 C.3     1  UNL1        0.1075
     26 N          63.3585   84.8784   12.5383 N.am    1  UNL1       -0.2695
     27 C          64.6086   84.1617   12.9549 C.2     1  UNL1        0.4020
     28 O          65.2879   83.2231   12.0022 O.2     1  UNL1       -0.2264
     29 H          62.9127   85.4945   13.1635 H       1  UNL1        0.1528
     30 O          65.1795   84.3836   14.3242 O.3     1  UNL1       -0.4296
     31 C          64.2654   84.5042   15.5073 C.3     1  UNL1        0.2382
     32 C          63.8410   85.8587   15.9922 C.ar    1  UNL1        0.0405
     33 C          63.0973   85.9924   17.2880 C.ar    1  UNL1        0.0025
     34 C          62.6729   87.3470   17.7729 C.ar    1  UNL1        0.0205
     35 C          62.9922   88.5678   16.9620 C.ar    1  UNL1        0.0989
     36 N          63.7359   88.4341   15.6662 N.ar    1  UNL1       -0.2425
     37 C          64.1603   87.0796   15.1813 C.ar    1  UNL1        0.0982
     38 C          62.3117   83.2920   10.7669 C.3     1  UNL1        0.0485
     39 C          62.2856   82.1801   11.7733 C.ar    1  UNL1       -0.0204
     40 C          62.7758   80.8140   11.3945 C.ar    1  UNL1       -0.0042
     41 C          62.7497   79.7021   12.4010 C.ar    1  UNL1       -0.0003
     42 C          62.2335   79.9562   13.7862 C.ar    1  UNL1       -0.0000
     43 C          61.7433   81.3223   14.1650 C.ar    1  UNL1       -0.0003
     44 C          61.7694   82.4342   13.1586 C.ar    1  UNL1       -0.0042
@<TRIPOS>BOND
     1    19    20    1
     2    20    17    1
     3    17    18    1
     4    17     8    1
     5     8     9   ar
     6     9    10   ar
     7    10    11   ar
     8    11    12   ar
     9    12    13   ar
    10    13     5    1
    11     5     6    2
    12     5     7   am
    13     7    21    1
    14    21    22    1
    15    22    23    1
    16    22    24    1
    17     7     4    1
    18     4     1    1
    19     1     2    1
    20     1    25    1
    21    25    38    1
    22    38    39    1
    23    39    40   ar
    24    40    41   ar
    25    41    42   ar
    26    42    43   ar
    27    43    44   ar
    28    25    26    1
    29    26    27   am
    30    27    28    2
    31    27    30    1
    32    30    31    1
    33    31    32    1
    34    32    33   ar
    35    33    34   ar
    36    34    35   ar
    37    35    36   ar
    38    36    37   ar
    39    13    14   ar
    40    14    15   ar
    41    15    16   ar
    42    16     8   ar
    43    15    10   ar
    44    44    39   ar
    45    37    32   ar
    46     2     3    1
    47    26    29    1
@<TRIPOS>MOLECULE
*****
 44 47 0 0 0
SMALL
GASTEIGER

@<TRIPOS>ATOM
      1 C          64.9798   85.4346   14.3914 C.3     1  UNL1        0.1484
      2 O          66.3267   84.7755   14.4265 O.3     1  UNL1       -0.3810
      3 H          67.0146   85.4512   14.5324 H       1  UNL1        0.2105
      4 C          64.8710   86.9257   14.5135 C.3     1  UNL1        0.1245
      5 C          63.6117   88.9333   15.5783 C.2     1  UNL1        0.2492
      6 O          62.8782   89.5393   16.7379 O.2     1  UNL1       -0.2699
      7 N          64.1375   87.5317   15.6731 N.am    1  UNL1       -0.2735
      8 C          65.7673   93.1213   11.2689 C.ar    1  UNL1        0.2924
      9 N          64.6639   92.2610   10.7281 N.ar    1  UNL1       -0.1946
     10 C          64.2347   91.3203   11.8147 C.ar    1  UNL1        0.1202
     11 C          63.1889   90.2457   11.8569 C.ar    1  UNL1        0.0225
     12 C          62.9813   89.4501   13.1114 C.ar    1  UNL1        0.0063
     13 C          63.8194   89.7290   14.3237 C.ar    1  UNL1        0.0567
     14 C          64.8651   90.8035   14.2816 C.ar    1  UNL1        0.0437
     15 C          65.0727   91.5992   13.0271 C.ar    1  UNL1        0.1662
     16 O          66.0199   92.7123   12.6898 O.2     1  UNL1       -0.4237
     17 N          66.4909   94.2011   10.5203 N.pl3   1  UNL1       -0.2619
     18 C          67.3257   93.8537    9.3234 C.3     1  UNL1        0.1166
     19 C          65.2287   96.4719   10.5069 C.3     1  UNL1        0.0233
     20 C          66.3798   95.6282   10.9685 C.3     1  UNL1        0.0952
     21 C          63.9298   86.7360   16.9277 C.3     1  UNL1        0.0937
     22 C          62.5766   86.6935   17.5734 C.3     1  UNL1        0.0199
     23 C          62.4276   87.0362   19.0261 C.3     1  UNL1        0.0018
     24 C          61.3722   86.3083   16.7664 C.3     1  UNL1        0.0018
     25 C          63.7416   84.6027   14.2341 C.3     1  UNL1        0.1075
     26 N          62.5135   85.1963   13.6099 N.am    1  UNL1       -0.2695
     27 C          62.4420   85.3802   12.1230 C.2     1  UNL1        0.4020
     28 O          63.5987   84.9707   11.2602 O.2     1  UNL1       -0.2264
     29 H          61.7543   85.4651   14.1762 H       1  UNL1        0.1528
     30 O          61.2139   85.9738   11.4988 O.3     1  UNL1       -0.4296
     31 C          61.3284   86.7842   10.2418 C.3     1  UNL1        0.2382
     32 C          61.3972   86.0972    8.9102 C.ar    1  UNL1        0.0405
     33 C          62.6998   85.5360    8.4222 C.ar    1  UNL1        0.0025
     34 C          62.7685   84.8489    7.0905 C.ar    1  UNL1        0.0205
     35 C          61.5347   84.7231    6.2469 C.ar    1  UNL1        0.0989
     36 N          60.2320   85.2844    6.7349 N.ar    1  UNL1       -0.2425
     37 C          60.1633   85.9714    8.0665 C.ar    1  UNL1        0.0982
     38 C          63.7314   83.1773   14.7010 C.3     1  UNL1        0.0485
     39 C          63.3315   82.0819   13.7576 C.ar    1  UNL1       -0.0204
     40 C          63.8144   82.1016   12.3376 C.ar    1  UNL1       -0.0042
     41 C          63.4145   81.0061   11.3941 C.ar    1  UNL1       -0.0003
     42 C          62.5317   79.8910   11.8707 C.ar    1  UNL1       -0.0000
     43 C          62.0488   79.8713   13.2906 C.ar    1  UNL1       -0.0003
     44 C          62.4487   80.9667   14.2341 C.ar    1  UNL1       -0.0042
@<TRIPOS>BOND
     1    19    20    1
     2    20    17    1
     3    17    18    1
     4    17     8    1
     5     8     9   ar
     6     9    10   ar
     7    10    11   ar
     8    11    12   ar
     9    12    13   ar
    10    13     5    1
    11     5     6    2
    12     5     7   am
    13     7    21    1
    14    21    22    1
    15    22    23    1
    16    22    24    1
    17     7     4    1
    18     4     1    1
    19     1     2    1
    20     1    25    1
    21    25    38    1
    22    38    39    1
    23    39    40   ar
    24    40    41   ar
    25    41    42   ar
    26    42    43   ar
    27    43    44   ar
    28    25    26    1
    29    26    27   am
    30    27    28    2
    31    27    30    1
    32    30    31    1
    33    31    32    1
    34    32    33   ar
    35    33    34   ar
    36    34    35   ar
    37    35    36   ar
    38    36    37   ar
    39    13    14   ar
    40    14    15   ar
    41    15    16   ar
    42    16     8   ar
    43    15    10   ar
    44    44    39   ar
    45    37    32   ar
    46     2     3    1
    47    26    29    1
@<TRIPOS>MOLECULE
*****
 44 47 0 0 0
SMALL
GASTEIGER

@<TRIPOS>ATOM
      1 C          62.5280   86.3086    9.5566 C.3     1  UNL1        0.1484
      2 O          62.8314   85.8696    8.1548 O.3     1  UNL1       -0.3810
      3 H          62.9616   86.6494    7.5928 H       1  UNL1        0.2105
      4 C          62.4682   87.7703    9.8885 C.3     1  UNL1        0.1245
      5 C          61.0617   89.8675   10.4995 C.2     1  UNL1        0.2492
      6 O          59.7363   90.5657   10.5756 O.2     1  UNL1       -0.2699
      7 N          61.1428   88.4685    9.9646 N.am    1  UNL1       -0.2735
      8 C          65.8483   92.1481   14.0554 C.ar    1  UNL1        0.2924
      9 N          65.9609   92.5550   12.6160 N.ar    1  UNL1       -0.1946
     10 C          64.7946   91.9699   11.8762 C.ar    1  UNL1        0.1202
     11 C          64.3838   92.0377   10.4352 C.ar    1  UNL1        0.0225
     12 C          63.1395   91.3369    9.9763 C.ar    1  UNL1        0.0063
     13 C          62.3060   90.5683   10.9585 C.ar    1  UNL1        0.0567
     14 C          62.7168   90.5005   12.3995 C.ar    1  UNL1        0.0437
     15 C          63.9611   91.2013   12.8584 C.ar    1  UNL1        0.1662
     16 O          64.6124   91.3115   14.2051 O.2     1  UNL1       -0.4237
     17 N          66.8039   92.5136   15.1523 N.pl3   1  UNL1       -0.2619
     18 C          66.3124   92.6407   16.5637 C.3     1  UNL1        0.1166
     19 C          69.0882   93.5961   15.7525 C.3     1  UNL1        0.0233
     20 C          68.2510   92.7519   14.8378 C.3     1  UNL1        0.0952
     21 C          59.8985   87.7677    9.5056 C.3     1  UNL1        0.0937
     22 C          59.5838   87.6799    8.0416 C.3     1  UNL1        0.0199
     23 C          59.4138   88.9328    7.2346 C.3     1  UNL1        0.0018
     24 C          59.4391   86.3391    7.3847 C.3     1  UNL1        0.0018
     25 C          62.2842   85.2860   10.6266 C.3     1  UNL1        0.1075
     26 N          62.3674   83.8243   10.3000 N.am    1  UNL1       -0.2695
     27 C          63.7035   83.1461   10.2308 C.2     1  UNL1        0.4020
     28 O          64.9565   83.9295   10.4882 O.2     1  UNL1       -0.2264
     29 H          61.5450   83.3101   10.1311 H       1  UNL1        0.1528
     30 O          63.7866   81.6844    9.9042 O.3     1  UNL1       -0.4296
     31 C          63.1956   80.6720   10.8400 C.3     1  UNL1        0.2382
     32 C          62.9519   81.0305   12.2760 C.ar    1  UNL1        0.0405
     33 C          61.5483   81.1712   12.7861 C.ar    1  UNL1        0.0025
     34 C          61.3046   81.5297   14.2221 C.ar    1  UNL1        0.0205
     35 C          62.4645   81.7475   15.1480 C.ar    1  UNL1        0.0989
     36 N          63.8680   81.6068   14.6379 N.ar    1  UNL1       -0.2425
     37 C          64.1118   81.2484   13.2019 C.ar    1  UNL1        0.0982
     38 C          61.9574   85.7251   12.0231 C.3     1  UNL1        0.0485
     39 C          63.0568   85.9197   13.0249 C.ar    1  UNL1       -0.0204
     40 C          63.7749   84.7306   13.5908 C.ar    1  UNL1       -0.0042
     41 C          64.8743   84.9251   14.5925 C.ar    1  UNL1       -0.0003
     42 C          65.2556   86.3088   15.0283 C.ar    1  UNL1       -0.0000
     43 C          64.5376   87.4979   14.4623 C.ar    1  UNL1       -0.0003
     44 C          63.4382   87.3034   13.4606 C.ar    1  UNL1       -0.0042
@<TRIPOS>BOND
     1    19    20    1
     2    20    17    1
     3    17    18    1
     4    17     8    1
     5     8     9   ar
     6     9    10   ar
     7    10    11   ar
     8    11    12   ar
     9    12    13   ar
    10    13     5    1
    11     5     6    2
    12     5     7   am
    13     7    21    1
    14    21    22    1
    15    22    23    1
    16    22    24    1
    17     7     4    1
    18     4     1    1
    19     1     2    1
    20     1    25    1
    21    25    38    1
    22    38    39    1
    23    39    40   ar
    24    40    41   ar
    25    41    42   ar
    26    42    43   ar
    27    43    44   ar
    28    25    26    1
    29    26    27   am
    30    27    28    2
    31    27    30    1
    32    30    31    1
    33    31    32    1
    34    32    33   ar
    35    33    34   ar
    36    34    35   ar
    37    35    36   ar
    38    36    37   ar
    39    13    14   ar
    40    14    15   ar
    41    15    16   ar
    42    16     8   ar
    43    15    10   ar
    44    44    39   ar
    45    37    32   ar
    46     2     3    1
    47    26    29    1
@<TRIPOS>MOLECULE
*****
 44 47 0 0 0
SMALL
GASTEIGER

@<TRIPOS>ATOM
      1 C          62.9980   85.6643   11.6385 C.3     1  UNL1        0.1484
      2 O          63.0219   84.7973   10.4147 O.3     1  UNL1       -0.3810
      3 H          62.8831   85.3460    9.6269 H       1  UNL1        0.2105
      4 C          62.7815   87.1427   11.5061 C.3     1  UNL1        0.1245
      5 C          61.4650   89.1319   10.4766 C.2     1  UNL1        0.2492
      6 O          60.2809   89.6514    9.7164 O.2     1  UNL1       -0.2699
      7 N          61.5974   87.6623   10.7459 N.am    1  UNL1       -0.2735
      8 C          65.6306   92.3001   14.1327 C.ar    1  UNL1        0.2924
      9 N          65.6271   92.7889   12.7146 N.ar    1  UNL1       -0.1946
     10 C          64.6205   91.9824   11.9488 C.ar    1  UNL1        0.1202
     11 C          64.1874   92.0194   10.5132 C.ar    1  UNL1        0.0225
     12 C          63.1356   91.0692   10.0225 C.ar    1  UNL1        0.0063
     13 C          62.5169   90.0821   10.9673 C.ar    1  UNL1        0.0567
     14 C          62.9501   90.0451   12.4029 C.ar    1  UNL1        0.0437
     15 C          64.0019   90.9952   12.8937 C.ar    1  UNL1        0.1662
     16 O          64.6261   91.1916   14.2434 O.2     1  UNL1       -0.4237
     17 N          66.4879   92.8274   15.2449 N.pl3   1  UNL1       -0.2619
     18 C          66.0599   92.6483   16.6713 C.3     1  UNL1        0.1166
     19 C          68.8273   93.6788   15.9881 C.3     1  UNL1        0.0233
     20 C          67.7734   93.5337   14.9307 C.3     1  UNL1        0.0952
     21 C          60.5455   86.7121   10.2552 C.3     1  UNL1        0.0937
     22 C          60.3690   86.4838    8.7832 C.3     1  UNL1        0.0199
     23 C          61.4956   85.9158    7.9719 C.3     1  UNL1        0.0018
     24 C          59.0659   86.8235    8.1225 C.3     1  UNL1        0.0018
     25 C          63.1905   85.0529   12.9946 C.3     1  UNL1        0.1075
     26 N          62.3486   83.8856   13.4175 N.am    1  UNL1       -0.2695
     27 C          62.9587   82.7701   14.2133 C.2     1  UNL1        0.4020
     28 O          64.4107   82.8218   14.5863 O.2     1  UNL1       -0.2264
     29 H          61.3956   83.8517   13.1727 H       1  UNL1        0.1528
     30 O          62.1168   81.6028   14.6361 O.3     1  UNL1       -0.4296
     31 C          62.4002   80.2358   14.0874 C.3     1  UNL1        0.2382
     32 C          62.6054   80.0471   12.6136 C.ar    1  UNL1        0.0405
     33 C          62.9320   81.2254   11.7448 C.ar    1  UNL1        0.0025
     34 C          63.1372   81.0366   10.2709 C.ar    1  UNL1        0.0205
     35 C          63.0157   79.6694    9.6658 C.ar    1  UNL1        0.0989
     36 N          62.6891   78.4911   10.5346 N.ar    1  UNL1       -0.2425
     37 C          62.4839   78.6799   12.0084 C.ar    1  UNL1        0.0982
     38 C          64.2248   85.6088   13.9280 C.3     1  UNL1        0.0485
     39 C          63.8028   86.4103   15.1236 C.ar    1  UNL1       -0.0204
     40 C          63.2776   85.7155   16.3449 C.ar    1  UNL1       -0.0042
     41 C          62.8556   86.5169   17.5405 C.ar    1  UNL1       -0.0003
     42 C          62.9588   88.0131   17.5150 C.ar    1  UNL1       -0.0000
     43 C          63.4840   88.7079   16.2938 C.ar    1  UNL1       -0.0003
     44 C          63.9060   87.9065   15.0981 C.ar    1  UNL1       -0.0042
@<TRIPOS>BOND
     1    19    20    1
     2    20    17    1
     3    17    18    1
     4    17     8    1
     5     8     9   ar
     6     9    10   ar
     7    10    11   ar
     8    11    12   ar
     9    12    13   ar
    10    13     5    1
    11     5     6    2
    12     5     7   am
    13     7    21    1
    14    21    22    1
    15    22    23    1
    16    22    24    1
    17     7     4    1
    18     4     1    1
    19     1     2    1
    20     1    25    1
    21    25    38    1
    22    38    39    1
    23    39    40   ar
    24    40    41   ar
    25    41    42   ar
    26    42    43   ar
    27    43    44   ar
    28    25    26    1
    29    26    27   am
    30    27    28    2
    31    27    30    1
    32    30    31    1
    33    31    32    1
    34    32    33   ar
    35    33    34   ar
    36    34    35   ar
    37    35    36   ar
    38    36    37   ar
    39    13    14   ar
    40    14    15   ar
    41    15    16   ar
    42    16     8   ar
    43    15    10   ar
    44    44    39   ar
    45    37    32   ar
    46     2     3    1
    47    26    29    1
@<TRIPOS>MOLECULE
*****
 44 47 0 0 0
SMALL
GASTEIGER

@<TRIPOS>ATOM
      1 C          63.6098   89.9976   12.6311 C.3     1  UNL1        0.1484
      2 O          62.5732   88.9268   12.8005 O.3     1  UNL1       -0.3810
      3 H          62.7692   88.4104   13.5978 H       1  UNL1        0.2105
      4 C          64.7239   90.1274   13.6272 C.3     1  UNL1        0.1245
      5 C          64.0101   90.1956   16.1243 C.2     1  UNL1        0.2492
      6 O          63.7954   90.9657   17.3935 O.2     1  UNL1       -0.2699
      7 N          64.5092   90.8976   14.8963 N.am    1  UNL1       -0.2735
      8 C          63.7131   84.0620   14.3784 C.ar    1  UNL1        0.2924
      9 N          63.0277   84.3177   15.6880 N.ar    1  UNL1       -0.1946
     10 C          63.1565   85.7790   16.0011 C.ar    1  UNL1        0.1202
     11 C          62.6761   86.6037   17.1582 C.ar    1  UNL1        0.0225
     12 C          62.9606   88.0758   17.1993 C.ar    1  UNL1        0.0063
     13 C          63.7256   88.7233   16.0832 C.ar    1  UNL1        0.0567
     14 C          64.2060   87.8986   14.9261 C.ar    1  UNL1        0.0437
     15 C          63.9215   86.4265   14.8850 C.ar    1  UNL1        0.1662
     16 O          64.2654   85.3653   13.8822 O.2     1  UNL1       -0.4237
     17 N          63.8262   82.7359   13.6866 N.pl3   1  UNL1       -0.2619
     18 C          64.6118   82.6183   12.4142 C.3     1  UNL1        0.1166
     19 C          61.6997   81.2759   13.9973 C.3     1  UNL1        0.0233
     20 C          63.1537   81.5273   14.2671 C.3     1  UNL1        0.0952
     21 C          64.7937   92.3698   14.9375 C.3     1  UNL1        0.0937
     22 C          66.2086   92.8577   15.0381 C.3     1  UNL1        0.0199
     23 C          67.0619   92.4489   16.2020 C.3     1  UNL1        0.0018
     24 C          66.7701   93.7545   13.9748 C.3     1  UNL1        0.0018
     25 C          63.5325   90.9388   11.4656 C.3     1  UNL1        0.1075
     26 N          62.9210   90.4839   10.1736 N.am    1  UNL1       -0.2695
     27 C          61.4405   90.2611   10.0819 C.2     1  UNL1        0.4020
     28 O          60.5714   90.4932   11.2822 O.2     1  UNL1       -0.2264
     29 H          63.4915   90.3315    9.3858 H       1  UNL1        0.1528
     30 O          60.8291   89.8062    8.7899 O.3     1  UNL1       -0.4296
     31 C          60.3618   88.3889    8.6393 C.3     1  UNL1        0.2382
     32 C          61.0589   87.2866    9.3802 C.ar    1  UNL1        0.0405
     33 C          62.0245   86.3927    8.6602 C.ar    1  UNL1        0.0025
     34 C          62.7217   85.2904    9.4012 C.ar    1  UNL1        0.0205
     35 C          62.4532   85.0821   10.8622 C.ar    1  UNL1        0.0989
     36 N          61.4875   85.9761   11.5822 N.ar    1  UNL1       -0.2425
     37 C          60.7904   87.0783   10.8413 C.ar    1  UNL1        0.0982
     38 C          64.0665   92.3347   11.5921 C.3     1  UNL1        0.0485
     39 C          65.3417   92.7155   10.9001 C.ar    1  UNL1       -0.0204
     40 C          65.4665   94.0582   10.2432 C.ar    1  UNL1       -0.0042
     41 C          66.7416   94.4390    9.5511 C.ar    1  UNL1       -0.0003
     42 C          67.8920   93.4771    9.5159 C.ar    1  UNL1       -0.0000
     43 C          67.7673   92.1344   10.1729 C.ar    1  UNL1       -0.0003
     44 C          66.4921   91.7536   10.8649 C.ar    1  UNL1       -0.0042
@<TRIPOS>BOND
     1    19    20    1
     2    20    17    1
     3    17    18    1
     4    17     8    1
     5     8     9   ar
     6     9    10   ar
     7    10    11   ar
     8    11    12   ar
     9    12    13   ar
    10    13     5    1
    11     5     6    2
    12     5     7   am
    13     7    21    1
    14    21    22    1
    15    22    23    1
    16    22    24    1
    17     7     4    1
    18     4     1    1
    19     1     2    1
    20     1    25    1
    21    25    38    1
    22    38    39    1
    23    39    40   ar
    24    40    41   ar
    25    41    42   ar
    26    42    43   ar
    27    43    44   ar
    28    25    26    1
    29    26    27   am
    30    27    28    2
    31    27    30    1
    32    30    31    1
    33    31    32    1
    34    32    33   ar
    35    33    34   ar
    36    34    35   ar
    37    35    36   ar
    38    36    37   ar
    39    13    14   ar
    40    14    15   ar
    41    15    16   ar
    42    16     8   ar
    43    15    10   ar
    44    44    39   ar
    45    37    32   ar
    46     2     3    1
    47    26    29    1
