@<TRIPOS>MOLECULE
*****
 20 21 0 0 0
SMALL
GASTEIGER

@<TRIPOS>ATOM
      1 C          62.8104   89.6231   11.9967 C.ar    1  UNL1        0.1385
      2 C          63.0705   90.5982   10.8870 C.ar    1  UNL1        0.0366
      3 C          64.0902   91.6837   11.0661 C.ar    1  UNL1        0.0002
      4 C          64.8496   91.7941   12.3549 C.ar    1  UNL1       -0.0059
      5 C          64.5894   90.8190   13.4646 C.ar    1  UNL1        0.0002
      6 C          63.5698   89.7335   13.2855 C.ar    1  UNL1        0.0366
      7 O          61.7908   88.5376   11.8176 O.3     1  UNL1       -0.4754
      8 C          62.0860   87.3719   10.9211 C.3     1  UNL1        0.2068
      9 C          61.5417   87.3437    9.5236 C.3     1  UNL1        0.0646
     10 C          60.5867   88.4075    9.0691 C.3     1  UNL1        0.0760
     11 C          59.3534   89.2403    6.9395 C.3     1  UNL1        0.0897
     12 N          59.6650   88.1446    7.9153 N.3     1  UNL1       -0.2702
     13 C          59.0548   86.7858    7.7374 C.3     1  UNL1        0.0897
     14 C          65.8692   92.8796   12.5340 C.3     1  UNL1        0.0991
     15 N          66.5626   93.4620   11.3382 N.3     1  UNL1       -0.2690
     16 C          67.4222   92.5904   10.4713 C.3     1  UNL1        0.0724
     17 C          68.1155   93.1727    9.2755 C.3     1  UNL1        0.0174
     18 C          67.9494   94.6268    8.9465 C.3     1  UNL1        0.0029
     19 C          67.0900   95.4984    9.8134 C.3     1  UNL1        0.0174
     20 C          66.3965   94.9160   11.0092 C.3     1  UNL1        0.0724
@<TRIPOS>BOND
     1    11    12    1
     2    12    13    1
     3    12    10    1
     4    10     9    1
     5     9     8    1
     6     8     7    1
     7     7     1    1
     8     1     2   ar
     9     2     3   ar
    10     3     4   ar
    11     4    14    1
    12    14    15    1
    13    15    16    1
    14    16    17    1
    15    17    18    1
    16    18    19    1
    17    19    20    1
    18     4     5   ar
    19     5     6   ar
    20     6     1   ar
    21    20    15    1
@<TRIPOS>MOLECULE
*****
 20 21 0 0 0
SMALL
GASTEIGER

@<TRIPOS>ATOM
      1 C          62.8061   89.3641   11.9983 C.ar    1  UNL1        0.1385
      2 C          62.9414   90.3714   10.8952 C.ar    1  UNL1        0.0366
      3 C          63.8711   91.5377   11.0543 C.ar    1  UNL1        0.0002
      4 C          64.6655   91.6968   12.3166 C.ar    1  UNL1       -0.0059
      5 C          64.5302   90.6895   13.4198 C.ar    1  UNL1        0.0002
      6 C          63.6005   89.5232   13.2607 C.ar    1  UNL1        0.0366
      7 O          61.8764   88.1978   11.8392 O.3     1  UNL1       -0.4754
      8 C          62.3259   86.9768   11.0929 C.3     1  UNL1        0.2068
      9 C          61.9899   85.6118   11.6163 C.3     1  UNL1        0.0646
     10 C          63.0190   84.8241   12.3718 C.3     1  UNL1        0.0760
     11 C          62.3280   84.1899   14.7946 C.3     1  UNL1        0.0897
     12 N          63.1636   85.0061   13.8536 N.3     1  UNL1       -0.2702
     13 C          64.1440   86.0043   14.3945 C.3     1  UNL1        0.0897
     14 C          65.5952   92.8631   12.4758 C.3     1  UNL1        0.0991
     15 N          66.3835   93.3598   11.3003 N.3     1  UNL1       -0.2690
     16 C          66.2701   94.7931   10.8728 C.3     1  UNL1        0.0724
     17 C          67.0584   95.2898    9.6973 C.3     1  UNL1        0.0174
     18 C          67.9600   94.3531    8.9491 C.3     1  UNL1        0.0029
     19 C          68.0734   92.9198    9.3765 C.3     1  UNL1        0.0174
     20 C          67.2851   92.4231   10.5521 C.3     1  UNL1        0.0724
@<TRIPOS>BOND
     1    11    12    1
     2    12    13    1
     3    12    10    1
     4    10     9    1
     5     9     8    1
     6     8     7    1
     7     7     1    1
     8     1     2   ar
     9     2     3   ar
    10     3     4   ar
    11     4    14    1
    12    14    15    1
    13    15    16    1
    14    16    17    1
    15    17    18    1
    16    18    19    1
    17    19    20    1
    18     4     5   ar
    19     5     6   ar
    20     6     1   ar
    21    20    15    1
@<TRIPOS>MOLECULE
*****
 20 21 0 0 0
SMALL
GASTEIGER

@<TRIPOS>ATOM
      1 C          63.8279   91.0661   12.2349 C.ar    1  UNL1        0.1385
      2 C          63.7225   89.7819   13.0027 C.ar    1  UNL1        0.0366
      3 C          62.9684   88.6216   12.4238 C.ar    1  UNL1        0.0002
      4 C          62.3197   88.7456   11.0770 C.ar    1  UNL1       -0.0059
      5 C          62.4251   90.0299   10.3092 C.ar    1  UNL1        0.0002
      6 C          63.1792   91.1901   10.8882 C.ar    1  UNL1        0.0366
      7 O          64.5820   92.2263   12.8139 O.3     1  UNL1       -0.4754
      8 C          66.0343   92.0797   13.1593 C.3     1  UNL1        0.2068
      9 C          67.0852   92.4505   12.1553 C.3     1  UNL1        0.0646
     10 C          66.6851   92.8842   10.7762 C.3     1  UNL1        0.0760
     11 C          67.6088   94.8796    9.3922 C.3     1  UNL1        0.0897
     12 N          67.7115   93.4521    9.8412 N.3     1  UNL1       -0.2702
     13 C          68.8406   92.5924    9.3554 C.3     1  UNL1        0.0897
     14 C          61.5656   87.5854   10.4981 C.3     1  UNL1        0.0991
     15 N          62.2481   86.2618   10.3185 N.3     1  UNL1       -0.2690
     16 C          62.4551   85.3585   11.4980 C.3     1  UNL1        0.0724
     17 C          63.1376   84.0349   11.3183 C.3     1  UNL1        0.0174
     18 C          63.6131   83.6146    9.9592 C.3     1  UNL1        0.0029
     19 C          63.4060   84.5178    8.7797 C.3     1  UNL1        0.0174
     20 C          62.7235   85.8415    8.9593 C.3     1  UNL1        0.0724
@<TRIPOS>BOND
     1    11    12    1
     2    12    13    1
     3    12    10    1
     4    10     9    1
     5     9     8    1
     6     8     7    1
     7     7     1    1
     8     1     2   ar
     9     2     3   ar
    10     3     4   ar
    11     4    14    1
    12    14    15    1
    13    15    16    1
    14    16    17    1
    15    17    18    1
    16    18    19    1
    17    19    20    1
    18     4     5   ar
    19     5     6   ar
    20     6     1   ar
    21    20    15    1
@<TRIPOS>MOLECULE
*****
 20 21 0 0 0
SMALL
GASTEIGER

@<TRIPOS>ATOM
      1 C          64.1468   89.7770   13.7477 C.ar    1  UNL1        0.1385
      2 C          63.7141   90.4229   12.4649 C.ar    1  UNL1        0.0366
      3 C          64.3660   91.6943   12.0082 C.ar    1  UNL1        0.0002
      4 C          65.4506   92.3198   12.8342 C.ar    1  UNL1       -0.0059
      5 C          65.8833   91.6739   14.1169 C.ar    1  UNL1        0.0002
      6 C          65.2314   90.4025   14.5737 C.ar    1  UNL1        0.0366
      7 O          63.4949   88.5056   14.2044 O.3     1  UNL1       -0.4754
      8 C          64.2248   87.5795   15.1315 C.3     1  UNL1        0.2068
      9 C          64.5662   86.1883   14.6864 C.3     1  UNL1        0.0646
     10 C          63.7562   85.0244   15.1758 C.3     1  UNL1        0.0760
     11 C          62.7478   84.6980   12.8037 C.3     1  UNL1        0.0897
     12 N          62.9561   84.2068   14.2056 N.3     1  UNL1       -0.2702
     13 C          62.3642   82.8978   14.6373 C.3     1  UNL1        0.0897
     14 C          66.1025   93.5912   12.3774 C.3     1  UNL1        0.0991
     15 N          66.8329   93.6311   11.0679 N.3     1  UNL1       -0.2690
     16 C          66.8309   94.8859   10.2459 C.3     1  UNL1        0.0724
     17 C          67.5613   94.9258    8.9364 C.3     1  UNL1        0.0174
     18 C          68.2937   93.7109    8.4488 C.3     1  UNL1        0.0029
     19 C          68.2957   92.4562    9.2707 C.3     1  UNL1        0.0174
     20 C          67.5652   92.4162   10.5803 C.3     1  UNL1        0.0724
@<TRIPOS>BOND
     1    11    12    1
     2    12    13    1
     3    12    10    1
     4    10     9    1
     5     9     8    1
     6     8     7    1
     7     7     1    1
     8     1     2   ar
     9     2     3   ar
    10     3     4   ar
    11     4    14    1
    12    14    15    1
    13    15    16    1
    14    16    17    1
    15    17    18    1
    16    18    19    1
    17    19    20    1
    18     4     5   ar
    19     5     6   ar
    20     6     1   ar
    21    20    15    1
@<TRIPOS>MOLECULE
*****
 20 21 0 0 0
SMALL
GASTEIGER

@<TRIPOS>ATOM
      1 C          62.9030   89.6711   12.0938 C.ar    1  UNL1        0.1385
      2 C          63.6671   89.8137   13.3766 C.ar    1  UNL1        0.0366
      3 C          64.6649   90.9223   13.5360 C.ar    1  UNL1        0.0002
      4 C          64.8986   91.8884   12.4126 C.ar    1  UNL1       -0.0059
      5 C          64.1344   91.7458   11.1298 C.ar    1  UNL1        0.0002
      6 C          63.1366   90.6372   10.9703 C.ar    1  UNL1        0.0366
      7 O          61.9052   88.5625   11.9344 O.3     1  UNL1       -0.4754
      8 C          62.1987   87.4162   11.0126 C.3     1  UNL1        0.2068
      9 C          61.5688   86.0769   11.2572 C.3     1  UNL1        0.0646
     10 C          62.3429   84.8223   10.9799 C.3     1  UNL1        0.0760
     11 C          62.7784   84.4366   13.5120 C.3     1  UNL1        0.0897
     12 N          63.1259   84.1660   12.0782 N.3     1  UNL1       -0.2702
     13 C          64.2565   83.2391   11.7425 C.3     1  UNL1        0.0897
     14 C          65.8963   92.9970   12.5720 C.3     1  UNL1        0.0991
     15 N          66.5498   93.5975   11.3628 N.3     1  UNL1       -0.2690
     16 C          67.3796   92.7391   10.4545 C.3     1  UNL1        0.0724
     17 C          68.0331   93.3397    9.2453 C.3     1  UNL1        0.0174
     18 C          67.8568   94.7985    8.9442 C.3     1  UNL1        0.0029
     19 C          67.0271   95.6569    9.8524 C.3     1  UNL1        0.0174
     20 C          66.3736   95.0564   11.0617 C.3     1  UNL1        0.0724
@<TRIPOS>BOND
     1    11    12    1
     2    12    13    1
     3    12    10    1
     4    10     9    1
     5     9     8    1
     6     8     7    1
     7     7     1    1
     8     1     2   ar
     9     2     3   ar
    10     3     4   ar
    11     4    14    1
    12    14    15    1
    13    15    16    1
    14    16    17    1
    15    17    18    1
    16    18    19    1
    17    19    20    1
    18     4     5   ar
    19     5     6   ar
    20     6     1   ar
    21    20    15    1
@<TRIPOS>MOLECULE
*****
 20 21 0 0 0
SMALL
GASTEIGER

@<TRIPOS>ATOM
      1 C          62.6403   90.1735   12.3849 C.ar    1  UNL1        0.1385
      2 C          63.4592   90.3020   13.6351 C.ar    1  UNL1        0.0366
      3 C          64.6846   91.1670   13.6434 C.ar    1  UNL1        0.0002
      4 C          65.0911   91.9036   12.4016 C.ar    1  UNL1       -0.0059
      5 C          64.2722   91.7751   11.1514 C.ar    1  UNL1        0.0002
      6 C          63.0468   90.9101   11.1431 C.ar    1  UNL1        0.0366
      7 O          61.4148   89.3085   12.3766 O.3     1  UNL1       -0.4754
      8 C          61.0635   88.5175   11.1516 C.3     1  UNL1        0.2068
      9 C          61.9566   87.4009   10.6981 C.3     1  UNL1        0.0646
     10 C          61.3606   86.1506   10.1221 C.3     1  UNL1        0.0760
     11 C          62.8644   85.3141    8.1756 C.3     1  UNL1        0.0897
     12 N          61.5458   85.8325    8.6679 N.3     1  UNL1       -0.2702
     13 C          60.4123   86.0329    7.7061 C.3     1  UNL1        0.0897
     14 C          66.3165   92.7686   12.4099 C.3     1  UNL1        0.0991
     15 N          66.9228   93.2227   11.1152 N.3     1  UNL1       -0.2690
     16 C          66.6724   94.6154   10.6174 C.3     1  UNL1        0.0724
     17 C          67.2787   95.0694    9.3228 C.3     1  UNL1        0.0174
     18 C          68.1354   94.1309    8.5259 C.3     1  UNL1        0.0029
     19 C          68.3859   92.7382    9.0236 C.3     1  UNL1        0.0174
     20 C          67.7796   92.2841   10.3183 C.3     1  UNL1        0.0724
@<TRIPOS>BOND
     1    11    12    1
     2    12    13    1
     3    12    10    1
     4    10     9    1
     5     9     8    1
     6     8     7    1
     7     7     1    1
     8     1     2   ar
     9     2     3   ar
    10     3     4   ar
    11     4    14    1
    12    14    15    1
    13    15    16    1
    14    16    17    1
    15    17    18    1
    16    18    19    1
    17    19    20    1
    18     4     5   ar
    19     5     6   ar
    20     6     1   ar
    21    20    15    1
@<TRIPOS>MOLECULE
*****
 20 21 0 0 0
SMALL
GASTEIGER

@<TRIPOS>ATOM
      1 C          63.6800   89.6866   15.5036 C.ar    1  UNL1        0.1385
      2 C          63.0555   89.0561   16.7129 C.ar    1  UNL1        0.0366
      3 C          63.1204   87.5694   16.9016 C.ar    1  UNL1        0.0002
      4 C          63.8098   86.7132   15.8810 C.ar    1  UNL1       -0.0059
      5 C          64.4343   87.3437   14.6717 C.ar    1  UNL1        0.0002
      6 C          64.3694   88.8304   14.4830 C.ar    1  UNL1        0.0366
      7 O          63.6152   91.1732   15.3149 O.3     1  UNL1       -0.4754
      8 C          64.7762   92.0321   15.7204 C.3     1  UNL1        0.2068
      9 C          66.0962   91.8869   15.0229 C.3     1  UNL1        0.0646
     10 C          66.5828   92.9693   14.1054 C.3     1  UNL1        0.0760
     11 C          65.0969   92.0543   12.1806 C.3     1  UNL1        0.0897
     12 N          65.9625   93.1388   12.7502 N.3     1  UNL1       -0.2702
     13 C          66.2080   94.3929   11.9646 C.3     1  UNL1        0.0897
     14 C          63.8746   85.2266   16.0697 C.3     1  UNL1        0.0991
     15 N          63.5978   84.3111   14.9142 N.3     1  UNL1       -0.2690
     16 C          62.4196   83.3836   14.9576 C.3     1  UNL1        0.0724
     17 C          62.1428   82.4682   13.8021 C.3     1  UNL1        0.0174
     18 C          63.0441   82.4801   12.6032 C.3     1  UNL1        0.0029
     19 C          64.2223   83.4075   12.5597 C.3     1  UNL1        0.0174
     20 C          64.4991   84.3230   13.7153 C.3     1  UNL1        0.0724
@<TRIPOS>BOND
     1    11    12    1
     2    12    13    1
     3    12    10    1
     4    10     9    1
     5     9     8    1
     6     8     7    1
     7     7     1    1
     8     1     2   ar
     9     2     3   ar
    10     3     4   ar
    11     4    14    1
    12    14    15    1
    13    15    16    1
    14    16    17    1
    15    17    18    1
    16    18    19    1
    17    19    20    1
    18     4     5   ar
    19     5     6   ar
    20     6     1   ar
    21    20    15    1
@<TRIPOS>MOLECULE
*****
 20 21 0 0 0
SMALL
GASTEIGER

@<TRIPOS>ATOM
      1 C          63.5891   83.4912   12.6850 C.ar    1  UNL1        0.1385
      2 C          62.5963   84.6103   12.5764 C.ar    1  UNL1        0.0366
      3 C          62.3101   85.2322   11.2417 C.ar    1  UNL1        0.0002
      4 C          63.0167   84.7349   10.0156 C.ar    1  UNL1       -0.0059
      5 C          64.0095   83.6158   10.1242 C.ar    1  UNL1        0.0002
      6 C          64.2957   82.9939   11.4589 C.ar    1  UNL1        0.0366
      7 O          63.8753   82.8694   14.0197 O.3     1  UNL1       -0.4754
      8 C          63.5085   83.5958   15.2797 C.3     1  UNL1        0.2068
      9 C          64.2262   84.8589   15.6532 C.3     1  UNL1        0.0646
     10 C          63.5063   85.9342   16.4120 C.3     1  UNL1        0.0760
     11 C          64.3184   87.7059   14.6940 C.3     1  UNL1        0.0897
     12 N          63.6292   87.3660   15.9821 N.3     1  UNL1       -0.2702
     13 C          63.0628   88.4581   16.8405 C.3     1  UNL1        0.0897
     14 C          62.7305   85.3567    8.6810 C.3     1  UNL1        0.0991
     15 N          61.5666   86.2895    8.5222 N.3     1  UNL1       -0.2690
     16 C          60.3546   85.8525    7.7540 C.3     1  UNL1        0.0724
     17 C          59.1907   86.7853    7.5953 C.3     1  UNL1        0.0174
     18 C          59.2387   88.1550    8.2047 C.3     1  UNL1        0.0029
     19 C          60.4507   88.5921    8.9729 C.3     1  UNL1        0.0174
     20 C          61.6147   87.6593    9.1316 C.3     1  UNL1        0.0724
@<TRIPOS>BOND
     1    11    12    1
     2    12    13    1
     3    12    10    1
     4    10     9    1
     5     9     8    1
     6     8     7    1
     7     7     1    1
     8     1     2   ar
     9     2     3   ar
    10     3     4   ar
    11     4    14    1
    12    14    15    1
    13    15    16    1
    14    16    17    1
    15    17    18    1
    16    18    19    1
    17    19    20    1
    18     4     5   ar
    19     5     6   ar
    20     6     1   ar
    21    20    15    1
@<TRIPOS>MOLECULE
*****
 20 21 0 0 0
SMALL
GASTEIGER

@<TRIPOS>ATOM
      1 C          63.5377   88.7390   16.0243 C.ar    1  UNL1        0.1385
      2 C          64.2738   88.1537   14.8558 C.ar    1  UNL1        0.0366
      3 C          64.4370   86.6670   14.7404 C.ar    1  UNL1        0.0002
      4 C          63.8640   85.7657   15.7936 C.ar    1  UNL1       -0.0059
      5 C          63.1278   86.3510   16.9621 C.ar    1  UNL1        0.0002
      6 C          62.9647   87.8376   17.0774 C.ar    1  UNL1        0.0366
      7 O          63.3745   90.2256   16.1396 O.3     1  UNL1       -0.4754
      8 C          64.2585   91.1410   15.3455 C.3     1  UNL1        0.2068
      9 C          65.1720   92.0994   16.0504 C.3     1  UNL1        0.0646
     10 C          66.1566   92.9132   15.2640 C.3     1  UNL1        0.0760
     11 C          68.5626   92.2910   16.0216 C.3     1  UNL1        0.0897
     12 N          67.5128   92.3533   14.9520 N.3     1  UNL1       -0.2702
     13 C          67.8191   91.8558   13.5704 C.3     1  UNL1        0.0897
     14 C          64.0271   84.2791   15.6782 C.3     1  UNL1        0.0991
     15 N          63.6318   83.5771   14.4130 N.3     1  UNL1       -0.2690
     16 C          62.5355   82.5534   14.4342 C.3     1  UNL1        0.0724
     17 C          62.1402   81.8515   13.1690 C.3     1  UNL1        0.0174
     18 C          62.8411   82.1732   11.8824 C.3     1  UNL1        0.0029
     19 C          63.9373   83.1968   11.8611 C.3     1  UNL1        0.0174
     20 C          64.3327   83.8988   13.1264 C.3     1  UNL1        0.0724
@<TRIPOS>BOND
     1    11    12    1
     2    12    13    1
     3    12    10    1
     4    10     9    1
     5     9     8    1
     6     8     7    1
     7     7     1    1
     8     1     2   ar
     9     2     3   ar
    10     3     4   ar
    11     4    14    1
    12    14    15    1
    13    15    16    1
    14    16    17    1
    15    17    18    1
    16    18    19    1
    17    19    20    1
    18     4     5   ar
    19     5     6   ar
    20     6     1   ar
    21    20    15    1
