@<TRIPOS>MOLECULE
*****
 16 17 0 0 0
SMALL
GASTEIGER

@<TRIPOS>ATOM
      1 C          63.7341   83.7333   10.6821 C.ar    1  UNL1        0.1386
      2 C          63.7888   84.0833    9.2245 C.ar    1  UNL1        0.0384
      3 C          62.9118   85.1722    8.6812 C.ar    1  UNL1        0.0207
      4 C          61.9800   85.9110    9.5955 C.ar    1  UNL1        0.0657
      5 C          61.9252   85.5610   11.0530 C.ar    1  UNL1        0.0207
      6 C          62.8023   84.4721   11.5963 C.ar    1  UNL1        0.0384
      7 N          61.1029   86.9999    9.0522 N.ar    1  UNL1       -0.2864
      8 C          60.0645   86.8436    7.9811 C.ar    1  UNL1        0.1022
      9 C          59.4301   88.1833    7.7515 C.ar    1  UNL1        0.1196
     10 N          60.0765   89.1676    8.6807 N.ar    1  UNL1       -0.2220
     11 C          61.1103   88.4362    9.4845 C.ar    1  UNL1        0.1828
     12 O          64.6111   82.6444   11.2254 O.3     1  UNL1       -0.4755
     13 C          64.1581   81.8342   12.4036 C.3     1  UNL1        0.2054
     14 C          62.9783   80.9169   12.2740 C.3     1  UNL1        0.0473
     15 C          61.1462   81.0659   14.1100 C.3     1  UNL1        0.0001
     16 C          62.3225   80.3604   13.5029 C.3     1  UNL1        0.0038
@<TRIPOS>BOND
     1    15    16    1
     2    16    14    1
     3    14    13    1
     4    13    12    1
     5    12     1    1
     6     1     2   ar
     7     2     3   ar
     8     3     4   ar
     9     4     7    1
    10     7     8   ar
    11     8     9   ar
    12     9    10   ar
    13    10    11   ar
    14     4     5   ar
    15     5     6   ar
    16     6     1   ar
    17    11     7   ar
@<TRIPOS>MOLECULE
*****
 16 17 0 0 0
SMALL
GASTEIGER

@<TRIPOS>ATOM
      1 C          63.5346   83.7746   10.8090 C.ar    1  UNL1        0.1386
      2 C          62.5885   84.5446   11.6818 C.ar    1  UNL1        0.0384
      3 C          61.7510   85.6420   11.0949 C.ar    1  UNL1        0.0207
      4 C          61.8597   85.9693    9.6351 C.ar    1  UNL1        0.0657
      5 C          62.8058   85.1993    8.7622 C.ar    1  UNL1        0.0207
      6 C          63.6433   84.1019    9.3492 C.ar    1  UNL1        0.0384
      7 N          61.0222   87.0666    9.0482 N.ar    1  UNL1       -0.2864
      8 C          60.0101   86.9130    7.9518 C.ar    1  UNL1        0.1022
      9 C          59.4121   88.2616    7.6805 C.ar    1  UNL1        0.1196
     10 N          60.0546   89.2488    8.6093 N.ar    1  UNL1       -0.2220
     11 C          61.0497   88.5102    9.4546 C.ar    1  UNL1        0.1828
     12 O          64.3721   82.6773   11.3959 O.3     1  UNL1       -0.4755
     13 C          64.2005   82.2908   12.8350 C.3     1  UNL1        0.2054
     14 C          63.1821   81.2582   13.2179 C.3     1  UNL1        0.0473
     15 C          60.7750   80.8273   14.0957 C.3     1  UNL1        0.0001
     16 C          62.0439   81.6268   14.1228 C.3     1  UNL1        0.0038
@<TRIPOS>BOND
     1    15    16    1
     2    16    14    1
     3    14    13    1
     4    13    12    1
     5    12     1    1
     6     1     2   ar
     7     2     3   ar
     8     3     4   ar
     9     4     7    1
    10     7     8   ar
    11     8     9   ar
    12     9    10   ar
    13    10    11   ar
    14     4     5   ar
    15     5     6   ar
    16     6     1   ar
    17    11     7   ar
@<TRIPOS>MOLECULE
*****
 16 17 0 0 0
SMALL
GASTEIGER

@<TRIPOS>ATOM
      1 C          66.2245   92.9407   12.6708 C.ar    1  UNL1        0.1386
      2 C          65.0093   92.2475   12.1297 C.ar    1  UNL1        0.0384
      3 C          64.3562   91.1526   12.9200 C.ar    1  UNL1        0.0207
      4 C          64.9183   90.7509   14.2514 C.ar    1  UNL1        0.0657
      5 C          66.1335   91.4441   14.7925 C.ar    1  UNL1        0.0207
      6 C          66.7866   92.5390   14.0022 C.ar    1  UNL1        0.0384
      7 N          64.2652   89.6560   15.0418 N.ar    1  UNL1       -0.2864
      8 C          63.4160   89.8374   16.2649 C.ar    1  UNL1        0.1022
      9 C          62.9726   88.4810   16.7268 C.ar    1  UNL1        0.1196
     10 N          63.5477   87.4611   15.7892 N.ar    1  UNL1       -0.2220
     11 C          64.3465   88.1873   14.7478 C.ar    1  UNL1        0.1828
     12 O          66.8776   94.0356   11.8804 O.3     1  UNL1       -0.4755
     13 C          66.2466   94.5222   10.6097 C.3     1  UNL1        0.2054
     14 C          66.9900   94.4091    9.3118 C.3     1  UNL1        0.0473
     15 C          68.3222   92.1804    9.4057 C.3     1  UNL1        0.0001
     16 C          68.2959   93.6729    9.2572 C.3     1  UNL1        0.0038
@<TRIPOS>BOND
     1    15    16    1
     2    16    14    1
     3    14    13    1
     4    13    12    1
     5    12     1    1
     6     1     2   ar
     7     2     3   ar
     8     3     4   ar
     9     4     7    1
    10     7     8   ar
    11     8     9   ar
    12     9    10   ar
    13    10    11   ar
    14     4     5   ar
    15     5     6   ar
    16     6     1   ar
    17    11     7   ar
@<TRIPOS>MOLECULE
*****
 16 17 0 0 0
SMALL
GASTEIGER

@<TRIPOS>ATOM
      1 C          63.0775   89.6514   12.5375 C.ar    1  UNL1        0.1386
      2 C          63.7410   89.1612   13.7903 C.ar    1  UNL1        0.0384
      3 C          64.8841   89.9301   14.3836 C.ar    1  UNL1        0.0207
      4 C          65.3638   91.1891   13.7242 C.ar    1  UNL1        0.0657
      5 C          64.7003   91.6792   12.4714 C.ar    1  UNL1        0.0207
      6 C          63.5571   90.9103   11.8781 C.ar    1  UNL1        0.0384
      7 N          66.5069   91.9579   14.3176 N.ar    1  UNL1       -0.2864
      8 C          66.4560   92.7930   15.5625 C.ar    1  UNL1        0.1022
      9 C          67.8193   93.3779   15.7845 C.ar    1  UNL1        0.1196
     10 N          68.7129   92.9042   14.6767 N.ar    1  UNL1       -0.2220
     11 C          67.9018   92.0266   13.7701 C.ar    1  UNL1        0.1828
     12 O          61.9343   88.8825   11.9442 O.3     1  UNL1       -0.4755
     13 C          62.2019   87.6641   11.1113 C.3     1  UNL1        0.2054
     14 C          61.9312   87.6897    9.6362 C.3     1  UNL1        0.0473
     15 C          62.8864   85.5441    8.5251 C.3     1  UNL1        0.0001
     16 C          61.7145   86.4059    8.8910 C.3     1  UNL1        0.0038
@<TRIPOS>BOND
     1    15    16    1
     2    16    14    1
     3    14    13    1
     4    13    12    1
     5    12     1    1
     6     1     2   ar
     7     2     3   ar
     8     3     4   ar
     9     4     7    1
    10     7     8   ar
    11     8     9   ar
    12     9    10   ar
    13    10    11   ar
    14     4     5   ar
    15     5     6   ar
    16     6     1   ar
    17    11     7   ar
@<TRIPOS>MOLECULE
*****
 16 17 0 0 0
SMALL
GASTEIGER

@<TRIPOS>ATOM
      1 C          63.0643   89.8188   12.6259 C.ar    1  UNL1        0.1386
      2 C          63.5770   91.0692   11.9752 C.ar    1  UNL1        0.0384
      3 C          64.7515   91.7935   12.5634 C.ar    1  UNL1        0.0207
      4 C          65.4133   91.2674   13.8024 C.ar    1  UNL1        0.0657
      5 C          64.9006   90.0170   14.4531 C.ar    1  UNL1        0.0207
      6 C          63.7262   89.2926   13.8649 C.ar    1  UNL1        0.0384
      7 N          66.5878   91.9917   14.3906 N.ar    1  UNL1       -0.2864
      8 C          66.5801   92.8082   15.6489 C.ar    1  UNL1        0.1022
      9 C          67.9637   93.3478   15.8597 C.ar    1  UNL1        0.1196
     10 N          68.8265   92.8648   14.7318 N.ar    1  UNL1       -0.2220
     11 C          67.9761   92.0267   13.8238 C.ar    1  UNL1        0.1828
     12 O          61.8899   89.0945   12.0377 O.3     1  UNL1       -0.4755
     13 C          62.0128   88.4290   10.6991 C.3     1  UNL1        0.2054
     14 C          62.2106   86.9445   10.6148 C.3     1  UNL1        0.0473
     15 C          62.7522   85.5447    8.4942 C.3     1  UNL1        0.0001
     16 C          61.7491   86.1940    9.4008 C.3     1  UNL1        0.0038
@<TRIPOS>BOND
     1    15    16    1
     2    16    14    1
     3    14    13    1
     4    13    12    1
     5    12     1    1
     6     1     2   ar
     7     2     3   ar
     8     3     4   ar
     9     4     7    1
    10     7     8   ar
    11     8     9   ar
    12     9    10   ar
    13    10    11   ar
    14     4     5   ar
    15     5     6   ar
    16     6     1   ar
    17    11     7   ar
@<TRIPOS>MOLECULE
*****
 16 17 0 0 0
SMALL
GASTEIGER

@<TRIPOS>ATOM
      1 C          62.6273   90.0882   11.7305 C.ar    1  UNL1        0.1386
      2 C          63.6031   90.5465   12.7735 C.ar    1  UNL1        0.0384
      3 C          64.6528   91.5596   12.4249 C.ar    1  UNL1        0.0207
      4 C          64.7269   92.1144   11.0332 C.ar    1  UNL1        0.0657
      5 C          63.7512   91.6561    9.9903 C.ar    1  UNL1        0.0207
      6 C          62.7014   90.6430   10.3389 C.ar    1  UNL1        0.0384
      7 N          65.7767   93.1275   10.6846 N.ar    1  UNL1       -0.2864
      8 C          65.6258   94.6176   10.7669 C.ar    1  UNL1        0.1022
      9 C          66.9175   95.2395   10.3256 C.ar    1  UNL1        0.1196
     10 N          67.8668   94.1337    9.9705 N.ar    1  UNL1       -0.2220
     11 C          67.1617   92.8284   10.1924 C.ar    1  UNL1        0.1828
     12 O          61.5776   89.0751   12.0792 O.3     1  UNL1       -0.4755
     13 C          61.0111   88.1848   11.0132 C.3     1  UNL1        0.2054
     14 C          61.7625   86.9606   10.5809 C.3     1  UNL1        0.0473
     15 C          62.7926   85.6448    8.5915 C.3     1  UNL1        0.0001
     16 C          61.7023   86.5094    9.1516 C.3     1  UNL1        0.0038
@<TRIPOS>BOND
     1    15    16    1
     2    16    14    1
     3    14    13    1
     4    13    12    1
     5    12     1    1
     6     1     2   ar
     7     2     3   ar
     8     3     4   ar
     9     4     7    1
    10     7     8   ar
    11     8     9   ar
    12     9    10   ar
    13    10    11   ar
    14     4     5   ar
    15     5     6   ar
    16     6     1   ar
    17    11     7   ar
@<TRIPOS>MOLECULE
*****
 16 17 0 0 0
SMALL
GASTEIGER

@<TRIPOS>ATOM
      1 C          63.9142   90.8970   12.5518 C.ar    1  UNL1        0.1386
      2 C          63.5047   91.4007   11.1995 C.ar    1  UNL1        0.0384
      3 C          62.7629   90.5001   10.2568 C.ar    1  UNL1        0.0207
      4 C          62.4306   89.0959   10.6664 C.ar    1  UNL1        0.0657
      5 C          62.8401   88.5923   12.0186 C.ar    1  UNL1        0.0207
      6 C          63.5819   89.4928   12.9613 C.ar    1  UNL1        0.0384
      7 N          61.6888   88.1953    9.7236 N.ar    1  UNL1       -0.2864
      8 C          62.0627   86.7856    9.3732 C.ar    1  UNL1        0.1022
      9 C          61.0478   86.2653    8.3988 C.ar    1  UNL1        0.1196
     10 N          60.0467   87.3536    8.1470 N.ar    1  UNL1       -0.2220
     11 C          60.4428   88.5464    8.9658 C.ar    1  UNL1        0.1828
     12 O          64.6560   91.7976   13.4945 O.3     1  UNL1       -0.4755
     13 C          65.9106   92.4852   13.0438 C.3     1  UNL1        0.2054
     14 C          67.2462   91.9981   13.5223 C.3     1  UNL1        0.0473
     15 C          67.2859   92.6948   16.0250 C.3     1  UNL1        0.0001
     16 C          67.4416   91.6433   14.9667 C.3     1  UNL1        0.0038
@<TRIPOS>BOND
     1    15    16    1
     2    16    14    1
     3    14    13    1
     4    13    12    1
     5    12     1    1
     6     1     2   ar
     7     2     3   ar
     8     3     4   ar
     9     4     7    1
    10     7     8   ar
    11     8     9   ar
    12     9    10   ar
    13    10    11   ar
    14     4     5   ar
    15     5     6   ar
    16     6     1   ar
    17    11     7   ar
@<TRIPOS>MOLECULE
*****
 16 17 0 0 0
SMALL
GASTEIGER

@<TRIPOS>ATOM
      1 C          63.3606   84.1828   11.2500 C.ar    1  UNL1        0.1386
      2 C          62.3264   84.9886   11.9787 C.ar    1  UNL1        0.0384
      3 C          61.4775   85.9726   11.2296 C.ar    1  UNL1        0.0207
      4 C          61.6628   86.1508    9.7518 C.ar    1  UNL1        0.0657
      5 C          62.6970   85.3449    9.0231 C.ar    1  UNL1        0.0207
      6 C          63.5459   84.3609    9.7722 C.ar    1  UNL1        0.0384
      7 N          60.8139   87.1348    9.0027 N.ar    1  UNL1       -0.2864
      8 C          59.7993   86.8017    7.9494 C.ar    1  UNL1        0.1022
      9 C          59.1889   88.0857    7.4711 C.ar    1  UNL1        0.1196
     10 N          59.8263   89.2124    8.2289 N.ar    1  UNL1       -0.2220
     11 C          60.8306   88.6247    9.1754 C.ar    1  UNL1        0.1828
     12 O          64.2094   83.1987   11.9991 O.3     1  UNL1       -0.4755
     13 C          64.2770   83.2537   13.4965 C.3     1  UNL1        0.2054
     14 C          65.0375   84.3554   14.1731 C.3     1  UNL1        0.0473
     15 C          64.4774   86.8270   14.7455 C.3     1  UNL1        0.0001
     16 C          64.3103   85.3611   15.0157 C.3     1  UNL1        0.0038
@<TRIPOS>BOND
     1    15    16    1
     2    16    14    1
     3    14    13    1
     4    13    12    1
     5    12     1    1
     6     1     2   ar
     7     2     3   ar
     8     3     4   ar
     9     4     7    1
    10     7     8   ar
    11     8     9   ar
    12     9    10   ar
    13    10    11   ar
    14     4     5   ar
    15     5     6   ar
    16     6     1   ar
    17    11     7   ar
@<TRIPOS>MOLECULE
*****
 16 17 0 0 0
SMALL
GASTEIGER

@<TRIPOS>ATOM
      1 C          62.2399   89.1384   10.5432 C.ar    1  UNL1        0.1386
      2 C          62.6769   88.6179   11.8804 C.ar    1  UNL1        0.0384
      3 C          63.5482   89.4598   12.7647 C.ar    1  UNL1        0.0207
      4 C          63.9825   90.8222   12.3119 C.ar    1  UNL1        0.0657
      5 C          63.5456   91.3427   10.9748 C.ar    1  UNL1        0.0207
      6 C          62.6743   90.5009   10.0904 C.ar    1  UNL1        0.0384
      7 N          64.8538   91.6641   13.1963 N.ar    1  UNL1       -0.2864
      8 C          65.6901   92.8297   12.7582 C.ar    1  UNL1        0.1022
      9 C          66.3950   93.3742   13.9651 C.ar    1  UNL1        0.1196
     10 N          65.9943   92.5450   15.1492 N.ar    1  UNL1       -0.2220
     11 C          65.0418   91.4882   14.6740 C.ar    1  UNL1        0.1828
     12 O          61.3686   88.2966    9.6589 O.3     1  UNL1       -0.4755
     13 C          60.9772   86.9139   10.0887 C.3     1  UNL1        0.2054
     14 C          61.8955   85.7578    9.8237 C.3     1  UNL1        0.0473
     15 C          62.7123   84.8933    7.5138 C.3     1  UNL1        0.0001
     16 C          62.8686   85.8190    8.6837 C.3     1  UNL1        0.0038
@<TRIPOS>BOND
     1    15    16    1
     2    16    14    1
     3    14    13    1
     4    13    12    1
     5    12     1    1
     6     1     2   ar
     7     2     3   ar
     8     3     4   ar
     9     4     7    1
    10     7     8   ar
    11     8     9   ar
    12     9    10   ar
    13    10    11   ar
    14     4     5   ar
    15     5     6   ar
    16     6     1   ar
    17    11     7   ar
