@<TRIPOS>MOLECULE
*****
 40 43 0 0 0
SMALL
GASTEIGER

@<TRIPOS>ATOM
      1 C          64.0620   88.1785   14.0660 C.ar    1  UNL1        0.0207
      2 C          63.9598   87.4136   15.3522 C.ar    1  UNL1        0.1021
      3 N          63.4160   86.0156   15.3523 N.ar    1  UNL1       -0.2090
      4 C          62.9746   85.3825   14.0661 C.ar    1  UNL1        0.2400
      5 C          63.0768   86.1475   12.7798 C.ar    1  UNL1        0.1178
      6 C          63.6205   87.5454   12.7798 C.ar    1  UNL1        0.0221
      7 N          65.5381   94.0422   11.5783 N.ar    1  UNL1       -0.2777
      8 C          66.1593   94.6053   12.8220 C.ar    1  UNL1        0.1808
      9 N          66.2368   93.7705   14.0658 N.ar    1  UNL1       -0.2252
     10 C          65.6931   92.3725   14.0659 C.ar    1  UNL1        0.0876
     11 C          65.7707   91.5377   15.3096 C.ar    1  UNL1        0.0193
     12 C          65.2270   90.1397   15.3097 C.ar    1  UNL1        0.0016
     13 C          64.6057   89.5766   14.0659 C.ar    1  UNL1        0.0018
     14 C          64.5282   90.4114   12.8221 C.ar    1  UNL1        0.0063
     15 C          65.0719   91.8093   12.8221 C.ar    1  UNL1        0.0739
     16 C          64.9944   92.6442   11.5783 C.ar    1  UNL1        0.2634
     17 O          64.3731   92.0811   10.3345 O.2     1  UNL1       -0.2669
     18 C          65.4605   94.8771   10.3344 C.3     1  UNL1        0.1196
     19 C          66.7190   95.3439    9.6649 C.3     1  UNL1        0.0991
     20 C          67.1020   96.7933    9.7152 C.3     1  UNL1        0.0116
     21 C          69.1995   92.3191    8.9960 C.3     1  UNL1        0.1107
     22 N          68.3240   93.3016    9.7159 N.am    1  UNL1       -0.3026
     23 C          67.5944   94.3614    8.9450 C.2     1  UNL1        0.2239
     24 O          67.7401   94.4386    7.4541 O.2     1  UNL1       -0.2750
     25 H          68.2284   93.2509   10.6945 H       1  UNL1        0.1495
     26 O          62.4309   83.9845   14.0661 O.3     1  UNL1       -0.4553
     27 C          63.3638   82.8170   14.1943 C.3     1  UNL1        0.2543
     28 N          62.6354   85.5144   11.4936 N.pl3   1  UNL1       -0.2104
     29 H          62.8810   84.5821   11.2941 H       1  UNL1        0.1739
     30 S          61.8197   86.3017   10.5114 S.O2    1  UNL1        0.0745
     31 O          60.8582   86.6674   11.6030 O.2     1  UNL1       -0.1499
     32 O          62.7812   85.9360    9.4198 O.2     1  UNL1       -0.1499
     33 C          61.0039   87.0890    9.5292 C.ar    1  UNL1        0.1358
     34 C          60.0481   86.3843    8.6128 C.ar    1  UNL1        0.0234
     35 C          59.2324   87.1716    7.6306 C.ar    1  UNL1        0.0311
     36 C          59.3725   88.6636    7.5648 C.ar    1  UNL1        0.1411
     37 F          58.5567   89.4509    6.5826 F       1  UNL1       -0.2041
     38 C          60.3283   89.3683    8.4812 C.ar    1  UNL1        0.0424
     39 C          61.1440   88.5810    9.4634 C.ar    1  UNL1        0.0787
     40 CL         62.0998   89.2857   10.3798 Cl      1  UNL1       -0.0808
@<TRIPOS>BOND
     1    21    22    1
     2    22    23   am
     3    23    24    2
     4    23    19    1
     5    19    20    1
     6    19    18    1
     7    18     7    1
     8     7     8   ar
     9     8     9   ar
    10     9    10   ar
    11    10    11   ar
    12    11    12   ar
    13    12    13   ar
    14    13     1    1
    15     1     2   ar
    16     2     3   ar
    17     3     4   ar
    18     4    26    1
    19    26    27    1
    20     4     5   ar
    21     5    28    1
    22    28    30    1
    23    30    31    2
    24    30    32    2
    25    30    33    1
    26    33    34   ar
    27    34    35   ar
    28    35    36   ar
    29    36    37    1
    30    36    38   ar
    31    38    39   ar
    32    39    40    1
    33     5     6   ar
    34    13    14   ar
    35    14    15   ar
    36    15    16   ar
    37    16    17    2
    38    16     7   ar
    39    15    10   ar
    40     6     1   ar
    41    39    33   ar
    42    22    25    1
    43    28    29    1
@<TRIPOS>MOLECULE
*****
 40 43 0 0 0
SMALL
GASTEIGER

@<TRIPOS>ATOM
      1 C          62.3166   89.1359   11.1709 C.ar    1  UNL1        0.0207
      2 C          60.9380   89.6119   10.8204 C.ar    1  UNL1        0.1021
      3 N          60.0212   88.7326   10.0226 N.ar    1  UNL1       -0.2090
      4 C          60.4831   87.3774    9.5753 C.ar    1  UNL1        0.2400
      5 C          61.8618   86.9015    9.9259 C.ar    1  UNL1        0.1178
      6 C          62.7785   87.7807   10.7237 C.ar    1  UNL1        0.0221
      7 N          66.2075   94.2604   12.3335 N.ar    1  UNL1       -0.2777
      8 C          66.5539   93.8962   13.7468 C.ar    1  UNL1        0.1808
      9 N          65.9836   92.6529   14.3622 N.ar    1  UNL1       -0.2252
     10 C          65.0669   91.7736   13.5644 C.ar    1  UNL1        0.0876
     11 C          64.4966   90.5303   14.1799 C.ar    1  UNL1        0.0193
     12 C          63.5799   89.6511   13.3820 C.ar    1  UNL1        0.0016
     13 C          63.2334   90.0152   11.9688 C.ar    1  UNL1        0.0018
     14 C          63.8037   91.2586   11.3533 C.ar    1  UNL1        0.0063
     15 C          64.7204   92.1378   12.1511 C.ar    1  UNL1        0.0739
     16 C          65.2907   93.3812   11.5357 C.ar    1  UNL1        0.2634
     17 O          64.9443   93.7453   10.1224 O.2     1  UNL1       -0.2669
     18 C          66.7778   95.5038   11.7181 C.3     1  UNL1        0.1196
     19 C          66.7800   95.6697   10.2273 C.3     1  UNL1        0.0991
     20 C          66.0596   96.8264    9.6004 C.3     1  UNL1        0.0116
     21 C          68.9884   92.5607    9.1289 C.3     1  UNL1        0.1107
     22 N          68.2658   93.5514    9.9928 N.am    1  UNL1       -0.3026
     23 C          67.5025   94.6789    9.3635 C.2     1  UNL1        0.2239
     24 O          67.4618   94.8156    7.8703 O.2     1  UNL1       -0.2750
     25 H          68.2926   93.4617   10.9728 H       1  UNL1        0.1495
     26 O          59.5664   86.4981    8.7775 O.3     1  UNL1       -0.4553
     27 C          58.9457   87.0133    7.5129 C.3     1  UNL1        0.2543
     28 N          62.3237   85.5462    9.4787 N.pl3   1  UNL1       -0.2104
     29 H          62.4037   85.3456    8.5181 H       1  UNL1        0.1739
     30 S          62.6636   84.4966   10.4949 S.O2    1  UNL1        0.0745
     31 O          61.5789   85.0142   11.3923 O.2     1  UNL1       -0.1499
     32 O          63.7483   83.9791    9.5974 O.2     1  UNL1       -0.1499
     33 C          63.0035   83.4469   11.5111 C.ar    1  UNL1        0.1358
     34 C          62.7945   81.9967   11.1902 C.ar    1  UNL1        0.0234
     35 C          63.1344   80.9471   12.2064 C.ar    1  UNL1        0.0311
     36 C          63.6833   81.3477   13.5435 C.ar    1  UNL1        0.1411
     37 F          64.0232   80.2980   14.5598 F       1  UNL1       -0.2041
     38 C          63.8924   82.7979   13.8645 C.ar    1  UNL1        0.0424
     39 C          63.5525   83.8476   12.8483 C.ar    1  UNL1        0.0787
     40 CL         63.7616   85.2978   13.1693 Cl      1  UNL1       -0.0808
@<TRIPOS>BOND
     1    21    22    1
     2    22    23   am
     3    23    24    2
     4    23    19    1
     5    19    20    1
     6    19    18    1
     7    18     7    1
     8     7     8   ar
     9     8     9   ar
    10     9    10   ar
    11    10    11   ar
    12    11    12   ar
    13    12    13   ar
    14    13     1    1
    15     1     2   ar
    16     2     3   ar
    17     3     4   ar
    18     4    26    1
    19    26    27    1
    20     4     5   ar
    21     5    28    1
    22    28    30    1
    23    30    31    2
    24    30    32    2
    25    30    33    1
    26    33    34   ar
    27    34    35   ar
    28    35    36   ar
    29    36    37    1
    30    36    38   ar
    31    38    39   ar
    32    39    40    1
    33     5     6   ar
    34    13    14   ar
    35    14    15   ar
    36    15    16   ar
    37    16    17    2
    38    16     7   ar
    39    15    10   ar
    40     6     1   ar
    41    39    33   ar
    42    22    25    1
    43    28    29    1
@<TRIPOS>MOLECULE
*****
 40 43 0 0 0
SMALL
GASTEIGER

@<TRIPOS>ATOM
      1 C          64.6654   91.2392   13.2797 C.ar    1  UNL1        0.0207
      2 C          64.8896   90.8309   14.7055 C.ar    1  UNL1        0.1021
      3 N          65.7570   91.6684   15.5979 N.ar    1  UNL1       -0.2090
      4 C          66.4002   92.9141   15.0645 C.ar    1  UNL1        0.2400
      5 C          66.1759   93.3223   13.6386 C.ar    1  UNL1        0.1178
      6 C          65.3085   92.4849   12.7462 C.ar    1  UNL1        0.0221
      7 N          61.8503   85.7701   11.0627 N.ar    1  UNL1       -0.2777
      8 C          61.0894   86.4112    9.9401 C.ar    1  UNL1        0.1808
      9 N          61.1959   87.8895    9.7100 N.ar    1  UNL1       -0.2252
     10 C          62.0633   88.7270   10.6024 C.ar    1  UNL1        0.0876
     11 C          62.1697   90.2054   10.3723 C.ar    1  UNL1        0.0193
     12 C          63.0371   91.0427   11.2647 C.ar    1  UNL1        0.0016
     13 C          63.7980   90.4017   12.3872 C.ar    1  UNL1        0.0018
     14 C          63.6915   88.9233   12.6174 C.ar    1  UNL1        0.0063
     15 C          62.8242   88.0860   11.7250 C.ar    1  UNL1        0.0739
     16 C          62.7177   86.6075   11.9551 C.ar    1  UNL1        0.2634
     17 O          63.4786   85.9665   13.0776 O.2     1  UNL1       -0.2669
     18 C          61.7438   84.2917   11.2928 C.3     1  UNL1        0.1196
     19 C          62.9603   83.4233   11.1657 C.3     1  UNL1        0.0991
     20 C          63.8811   83.5895    9.9934 C.3     1  UNL1        0.0116
     21 C          62.4433   80.5057   13.8058 C.3     1  UNL1        0.1107
     22 N          62.1478   81.5403   12.7606 N.am    1  UNL1       -0.3026
     23 C          63.2558   82.3888   12.2108 C.2     1  UNL1        0.2239
     24 O          64.6593   82.2028   12.7062 O.2     1  UNL1       -0.2750
     25 H          61.2266   81.6623   12.4355 H       1  UNL1        0.1495
     26 O          67.2675   93.7515   15.9568 O.3     1  UNL1       -0.4553
     27 C          68.7590   93.5994   15.9104 C.3     1  UNL1        0.2543
     28 N          66.8190   94.5680   13.1051 N.pl3   1  UNL1       -0.2104
     29 H          67.4280   95.0906   13.6754 H       1  UNL1        0.1739
     30 S          66.5343   95.0176   11.7027 S.O2    1  UNL1        0.0745
     31 O          65.8674   96.2517   12.2337 O.2     1  UNL1       -0.1499
     32 O          67.2013   93.7834   11.1717 O.2     1  UNL1       -0.1499
     33 C          66.2496   95.4671   10.3002 C.ar    1  UNL1        0.1358
     34 C          65.1110   96.4055   10.0300 C.ar    1  UNL1        0.0234
     35 C          64.8262   96.8551    8.6276 C.ar    1  UNL1        0.0311
     36 C          65.6801   96.3663    7.4954 C.ar    1  UNL1        0.1411
     37 F          65.3953   96.8159    6.0929 F       1  UNL1       -0.2041
     38 C          66.8187   95.4279    7.7656 C.ar    1  UNL1        0.0424
     39 C          67.1034   94.9783    9.1680 C.ar    1  UNL1        0.0787
     40 CL         68.2420   94.0399    9.4381 Cl      1  UNL1       -0.0808
@<TRIPOS>BOND
     1    21    22    1
     2    22    23   am
     3    23    24    2
     4    23    19    1
     5    19    20    1
     6    19    18    1
     7    18     7    1
     8     7     8   ar
     9     8     9   ar
    10     9    10   ar
    11    10    11   ar
    12    11    12   ar
    13    12    13   ar
    14    13     1    1
    15     1     2   ar
    16     2     3   ar
    17     3     4   ar
    18     4    26    1
    19    26    27    1
    20     4     5   ar
    21     5    28    1
    22    28    30    1
    23    30    31    2
    24    30    32    2
    25    30    33    1
    26    33    34   ar
    27    34    35   ar
    28    35    36   ar
    29    36    37    1
    30    36    38   ar
    31    38    39   ar
    32    39    40    1
    33     5     6   ar
    34    13    14   ar
    35    14    15   ar
    36    15    16   ar
    37    16    17    2
    38    16     7   ar
    39    15    10   ar
    40     6     1   ar
    41    39    33   ar
    42    22    25    1
    43    28    29    1
@<TRIPOS>MOLECULE
*****
 40 43 0 0 0
SMALL
GASTEIGER

@<TRIPOS>ATOM
      1 C          63.6495   85.6162   14.3009 C.ar    1  UNL1        0.0207
      2 C          63.8702   84.3406   15.0587 C.ar    1  UNL1        0.1021
      3 N          63.8637   83.0271   14.3343 N.ar    1  UNL1       -0.2090
      4 C          63.6364   82.9892   12.8521 C.ar    1  UNL1        0.2400
      5 C          63.4157   84.2648   12.0943 C.ar    1  UNL1        0.1178
      6 C          63.4223   85.5783   12.8187 C.ar    1  UNL1        0.0221
      7 N          64.9983   91.9449   15.2378 N.ar    1  UNL1       -0.2777
      8 C          64.3402   92.0642   16.5804 C.ar    1  UNL1        0.1808
      9 N          63.6756   90.8700   17.1986 N.ar    1  UNL1       -0.2252
     10 C          63.6691   89.5565   16.4742 C.ar    1  UNL1        0.0876
     11 C          63.0045   88.3624   17.0924 C.ar    1  UNL1        0.0193
     12 C          62.9980   87.0489   16.3680 C.ar    1  UNL1        0.0016
     13 C          63.6560   86.9297   15.0254 C.ar    1  UNL1        0.0018
     14 C          64.3206   88.1238   14.4071 C.ar    1  UNL1        0.0063
     15 C          64.3271   89.4372   15.1316 C.ar    1  UNL1        0.0739
     16 C          64.9918   90.6315   14.5133 C.ar    1  UNL1        0.2634
     17 O          65.6498   90.5122   13.1707 O.2     1  UNL1       -0.2669
     18 C          65.6629   93.1392   14.6195 C.3     1  UNL1        0.1196
     19 C          67.1417   93.1285   14.3689 C.3     1  UNL1        0.0991
     20 C          68.0881   93.5692   15.4460 C.3     1  UNL1        0.0116
     21 C          67.4559   92.5478   10.4556 C.3     1  UNL1        0.1107
     22 N          66.9234   92.9992   11.7833 N.am    1  UNL1       -0.3026
     23 C          67.6742   92.6771   13.0413 C.2     1  UNL1        0.2239
     24 O          68.9575   91.9037   12.9715 O.2     1  UNL1       -0.2750
     25 H          66.0811   93.5068   11.8290 H       1  UNL1        0.1495
     26 O          63.6299   81.6758   12.1277 O.3     1  UNL1       -0.4553
     27 C          62.7543   80.5576   12.6102 C.3     1  UNL1        0.2543
     28 N          63.1885   84.2270   10.6121 N.pl3   1  UNL1       -0.2104
     29 H          63.6047   83.5197   10.0682 H       1  UNL1        0.1739
     30 S          62.3271   85.2666    9.9586 S.O2    1  UNL1        0.0745
     31 O          63.2664   85.3102    8.7900 O.2     1  UNL1       -0.1499
     32 O          61.3878   85.2230   11.1272 O.2     1  UNL1       -0.1499
     33 C          61.4658   86.3063    9.3050 C.ar    1  UNL1        0.1358
     34 C          60.5050   85.9120    8.2226 C.ar    1  UNL1        0.0234
     35 C          59.6437   86.9517    7.5690 C.ar    1  UNL1        0.0311
     36 C          59.7431   88.3856    7.9978 C.ar    1  UNL1        0.1411
     37 F          58.8818   89.4253    7.3442 F       1  UNL1       -0.2041
     38 C          60.7039   88.7799    9.0801 C.ar    1  UNL1        0.0424
     39 C          61.5652   87.7403    9.7337 C.ar    1  UNL1        0.0787
     40 CL         62.5259   88.1346   10.8161 Cl      1  UNL1       -0.0808
@<TRIPOS>BOND
     1    21    22    1
     2    22    23   am
     3    23    24    2
     4    23    19    1
     5    19    20    1
     6    19    18    1
     7    18     7    1
     8     7     8   ar
     9     8     9   ar
    10     9    10   ar
    11    10    11   ar
    12    11    12   ar
    13    12    13   ar
    14    13     1    1
    15     1     2   ar
    16     2     3   ar
    17     3     4   ar
    18     4    26    1
    19    26    27    1
    20     4     5   ar
    21     5    28    1
    22    28    30    1
    23    30    31    2
    24    30    32    2
    25    30    33    1
    26    33    34   ar
    27    34    35   ar
    28    35    36   ar
    29    36    37    1
    30    36    38   ar
    31    38    39   ar
    32    39    40    1
    33     5     6   ar
    34    13    14   ar
    35    14    15   ar
    36    15    16   ar
    37    16    17    2
    38    16     7   ar
    39    15    10   ar
    40     6     1   ar
    41    39    33   ar
    42    22    25    1
    43    28    29    1
@<TRIPOS>MOLECULE
*****
 40 43 0 0 0
SMALL
GASTEIGER

@<TRIPOS>ATOM
      1 C          64.2755   89.8008   14.0317 C.ar    1  UNL1        0.0207
      2 C          65.3715   90.7223   14.4785 C.ar    1  UNL1        0.1021
      3 N          65.7252   91.9231   13.6520 N.ar    1  UNL1       -0.2090
      4 C          64.9829   92.2024   12.3789 C.ar    1  UNL1        0.2400
      5 C          63.8868   91.2808   11.9321 C.ar    1  UNL1        0.1178
      6 C          63.5332   90.0801   12.7586 C.ar    1  UNL1        0.0221
      7 N          63.5061   83.4446   15.3573 N.ar    1  UNL1       -0.2777
      8 C          63.0065   83.6207   16.7606 C.ar    1  UNL1        0.1808
      9 N          62.8607   84.9976   17.3375 N.ar    1  UNL1       -0.2252
     10 C          63.2144   86.1984   16.5111 C.ar    1  UNL1        0.0876
     11 C          63.0685   87.5753   17.0880 C.ar    1  UNL1        0.0193
     12 C          63.4222   88.7761   16.2616 C.ar    1  UNL1        0.0016
     13 C          63.9218   88.5999   14.8582 C.ar    1  UNL1        0.0018
     14 C          64.0677   87.2231   14.2813 C.ar    1  UNL1        0.0063
     15 C          63.7140   86.0223   15.1077 C.ar    1  UNL1        0.0739
     16 C          63.8598   84.6453   14.5308 C.ar    1  UNL1        0.2634
     17 O          64.3594   84.4692   13.1275 O.2     1  UNL1       -0.2669
     18 C          63.6519   82.0676   14.7803 C.3     1  UNL1        0.1196
     19 C          62.6331   81.5497   13.8090 C.3     1  UNL1        0.0991
     20 C          61.2345   81.2644   14.2699 C.3     1  UNL1        0.0116
     21 C          64.0222   82.1875   10.1465 C.3     1  UNL1        0.1107
     22 N          63.6424   82.4202   11.5788 N.am    1  UNL1       -0.3026
     23 C          63.0129   81.3169   12.3766 C.2     1  UNL1        0.2239
     24 O          62.7631   79.9810   11.7420 O.2     1  UNL1       -0.2750
     25 H          63.8064   83.2971   11.9953 H       1  UNL1        0.1495
     26 O          65.3365   93.4031   11.5524 O.3     1  UNL1       -0.4553
     27 C          66.4405   93.3183   10.5404 C.3     1  UNL1        0.2543
     28 N          63.1445   91.5601   10.6590 N.pl3   1  UNL1       -0.2104
     29 H          63.2580   92.4250   10.2026 H       1  UNL1        0.1739
     30 S          62.2292   90.5216   10.0812 S.O2    1  UNL1        0.0745
     31 O          63.3905   89.8950    9.3679 O.2     1  UNL1       -0.1499
     32 O          61.0680   91.1483   10.7945 O.2     1  UNL1       -0.1499
     33 C          61.3140   89.4831    9.5034 C.ar    1  UNL1        0.1358
     34 C          60.3636   89.8500    8.4024 C.ar    1  UNL1        0.0234
     35 C          59.4483   88.8116    7.8246 C.ar    1  UNL1        0.0311
     36 C          59.4835   87.4062    8.3478 C.ar    1  UNL1        0.1411
     37 F          58.5682   86.3677    7.7700 F       1  UNL1       -0.2041
     38 C          60.4339   87.0393    9.4488 C.ar    1  UNL1        0.0424
     39 C          61.3491   88.0778   10.0266 C.ar    1  UNL1        0.0787
     40 CL         62.2995   87.7109   11.1275 Cl      1  UNL1       -0.0808
@<TRIPOS>BOND
     1    21    22    1
     2    22    23   am
     3    23    24    2
     4    23    19    1
     5    19    20    1
     6    19    18    1
     7    18     7    1
     8     7     8   ar
     9     8     9   ar
    10     9    10   ar
    11    10    11   ar
    12    11    12   ar
    13    12    13   ar
    14    13     1    1
    15     1     2   ar
    16     2     3   ar
    17     3     4   ar
    18     4    26    1
    19    26    27    1
    20     4     5   ar
    21     5    28    1
    22    28    30    1
    23    30    31    2
    24    30    32    2
    25    30    33    1
    26    33    34   ar
    27    34    35   ar
    28    35    36   ar
    29    36    37    1
    30    36    38   ar
    31    38    39   ar
    32    39    40    1
    33     5     6   ar
    34    13    14   ar
    35    14    15   ar
    36    15    16   ar
    37    16    17    2
    38    16     7   ar
    39    15    10   ar
    40     6     1   ar
    41    39    33   ar
    42    22    25    1
    43    28    29    1
@<TRIPOS>MOLECULE
*****
 40 43 0 0 0
SMALL
GASTEIGER

@<TRIPOS>ATOM
      1 C          62.1210   89.1290   11.0328 C.ar    1  UNL1        0.0207
      2 C          60.7651   89.5990   10.5961 C.ar    1  UNL1        0.1021
      3 N          59.8817   88.6943    9.7891 N.ar    1  UNL1       -0.2090
      4 C          60.3543   87.3196    9.4188 C.ar    1  UNL1        0.2400
      5 C          61.7102   86.8497    9.8555 C.ar    1  UNL1        0.1178
      6 C          62.5935   87.7544   10.6625 C.ar    1  UNL1        0.0221
      7 N          66.2848   94.0547   12.1057 N.ar    1  UNL1       -0.2777
      8 C          66.4113   93.8535   13.5867 C.ar    1  UNL1        0.1808
      9 N          65.6544   92.7477   14.2608 N.ar    1  UNL1       -0.2252
     10 C          64.7710   91.8430   13.4538 C.ar    1  UNL1        0.0876
     11 C          64.0142   90.7372   14.1278 C.ar    1  UNL1        0.0193
     12 C          63.1309   89.8326   13.3208 C.ar    1  UNL1        0.0016
     13 C          63.0044   90.0338   11.8398 C.ar    1  UNL1        0.0018
     14 C          63.7612   91.1395   11.1657 C.ar    1  UNL1        0.0063
     15 C          64.6445   92.0442   11.9727 C.ar    1  UNL1        0.0739
     16 C          65.4014   93.1500   11.2987 C.ar    1  UNL1        0.2634
     17 O          65.2750   93.3512    9.8176 O.2     1  UNL1       -0.2669
     18 C          67.0417   95.1605   11.4316 C.3     1  UNL1        0.1196
     19 C          67.0813   95.2380    9.9342 C.3     1  UNL1        0.0991
     20 C          68.2263   94.6276    9.1817 C.3     1  UNL1        0.0116
     21 C          63.5511   96.8559    9.1155 C.3     1  UNL1        0.1107
     22 N          64.6565   96.1680    9.8605 N.am    1  UNL1       -0.3026
     23 C          65.9759   95.9259    9.1893 C.2     1  UNL1        0.2239
     24 O          66.1899   96.3717    7.7732 O.2     1  UNL1       -0.2750
     25 H          64.5160   95.8754   10.7899 H       1  UNL1        0.1495
     26 O          59.4710   86.4149    8.6118 O.3     1  UNL1       -0.4553
     27 C          59.2242   86.7063    7.1613 C.3     1  UNL1        0.2543
     28 N          62.1828   85.4751    9.4852 N.pl3   1  UNL1       -0.2104
     29 H          62.2004   85.1985    8.5406 H       1  UNL1        0.1739
     30 S          62.6284   84.5219   10.5543 S.O2    1  UNL1        0.0745
     31 O          61.4667   84.9362   11.4079 O.2     1  UNL1       -0.1499
     32 O          63.7902   84.1077    9.7006 O.2     1  UNL1       -0.1499
     33 C          63.0741   83.5687   11.6234 C.ar    1  UNL1        0.1358
     34 C          63.3903   84.0784   12.9982 C.ar    1  UNL1        0.0234
     35 C          63.8359   83.1253   14.0673 C.ar    1  UNL1        0.0311
     36 C          63.9653   81.6625   13.7615 C.ar    1  UNL1        0.1411
     37 F          64.4110   80.7093   14.8306 F       1  UNL1       -0.2041
     38 C          63.6491   81.1529   12.3866 C.ar    1  UNL1        0.0424
     39 C          63.2035   82.1060   11.3176 C.ar    1  UNL1        0.0787
     40 CL         62.8873   81.5963    9.9427 Cl      1  UNL1       -0.0808
@<TRIPOS>BOND
     1    21    22    1
     2    22    23   am
     3    23    24    2
     4    23    19    1
     5    19    20    1
     6    19    18    1
     7    18     7    1
     8     7     8   ar
     9     8     9   ar
    10     9    10   ar
    11    10    11   ar
    12    11    12   ar
    13    12    13   ar
    14    13     1    1
    15     1     2   ar
    16     2     3   ar
    17     3     4   ar
    18     4    26    1
    19    26    27    1
    20     4     5   ar
    21     5    28    1
    22    28    30    1
    23    30    31    2
    24    30    32    2
    25    30    33    1
    26    33    34   ar
    27    34    35   ar
    28    35    36   ar
    29    36    37    1
    30    36    38   ar
    31    38    39   ar
    32    39    40    1
    33     5     6   ar
    34    13    14   ar
    35    14    15   ar
    36    15    16   ar
    37    16    17    2
    38    16     7   ar
    39    15    10   ar
    40     6     1   ar
    41    39    33   ar
    42    22    25    1
    43    28    29    1
