@<TRIPOS>MOLECULE
*****
 47 52 0 0 0
SMALL
GASTEIGER

@<TRIPOS>ATOM
      1 C          63.8644   83.1524   12.4211 C.ar    1  UNL1        0.1721
      2 C          63.7771   83.1036   10.9245 C.ar    1  UNL1        0.0360
      3 C          63.0324   84.1728   10.1813 C.ar    1  UNL1       -0.0119
      4 C          62.3751   85.2909   10.9348 C.ar    1  UNL1       -0.0000
      5 C          62.4624   85.3397   12.4315 C.ar    1  UNL1        0.0374
      6 C          63.2070   84.2705   13.1746 C.ar    1  UNL1        0.1718
      7 C          61.6304   86.3601   10.1917 C.3     1  UNL1        0.1245
      8 N          61.5431   86.3112    8.6951 N.am    1  UNL1       -0.2523
      9 C          62.2005   85.1932    7.9415 C.2     1  UNL1        0.2342
     10 O          62.1132   85.1443    6.4449 O.2     1  UNL1       -0.2742
     11 C          62.9452   84.1239    8.6846 C.3     1  UNL1        0.1118
     12 C          60.9730   87.4781   10.9452 C.ar    1  UNL1        0.0003
     13 C          59.4863   87.4757   11.1447 C.ar    1  UNL1       -0.0015
     14 C          58.8289   88.5938   11.8982 C.ar    1  UNL1        0.0111
     15 C          59.6582   89.7142   12.4522 C.ar    1  UNL1        0.0577
     16 CL         59.0007   90.8323   13.2057 Cl      1  UNL1       -0.0822
     17 C          61.1448   89.7167   12.2527 C.ar    1  UNL1        0.0111
     18 C          61.8023   88.5986   11.4992 C.ar    1  UNL1       -0.0015
     19 C          60.7984   87.3805    7.9519 C.ar    1  UNL1        0.0545
     20 C          61.1714   88.8214    8.1375 C.ar    1  UNL1        0.0162
     21 C          60.4268   89.8906    7.3944 C.ar    1  UNL1        0.0158
     22 C          59.3091   89.5189    6.4657 C.ar    1  UNL1        0.0480
     23 C          58.9361   88.0779    6.2800 C.ar    1  UNL1        0.0158
     24 C          59.6807   87.0087    7.0231 C.ar    1  UNL1        0.0162
     25 N          58.5644   90.5881    5.7225 N.pl3   1  UNL1       -0.3058
     26 C          57.1994   90.3049    5.1690 C.3     1  UNL1        0.1122
     27 C          59.1849   91.9406    5.5329 C.3     1  UNL1        0.0908
     28 C          59.9186   92.2579    4.2637 C.3     1  UNL1        0.0199
     29 C          59.2369   93.0371    3.1781 C.3     1  UNL1        0.0031
     30 C          59.9706   93.3544    1.9089 C.3     1  UNL1        0.0160
     31 C          61.3860   92.8926    1.7252 C.3     1  UNL1        0.0580
     32 C          62.0675   92.1135    2.8107 C.3     1  UNL1        0.0160
     33 C          61.3338   91.7962    4.0800 C.3     1  UNL1        0.0031
     34 N          62.1196   93.2099    0.4559 N.3     1  UNL1       -0.2649
     35 C          63.5799   93.5503    0.4988 C.3     1  UNL1        0.0942
     36 C          64.3136   93.8676   -0.7704 C.3     1  UNL1        0.1108
     37 N          63.5870   93.8445   -2.0826 N.am    1  UNL1       -0.2752
     38 C          64.3207   94.1619   -3.3518 C.3     1  UNL1        0.1149
     39 C          62.1268   93.5041   -2.1254 C.2     1  UNL1        0.2421
     40 O          61.4002   93.4811   -3.4375 O.2     1  UNL1       -0.2734
     41 C          61.3931   93.1868   -0.8561 C.3     1  UNL1        0.1586
     42 C          63.8729   80.8922   13.7023 C.3     1  UNL1        0.2526
     43 O          64.6091   82.0832   13.1643 O.3     1  UNL1       -0.4684
     44 O          63.2943   84.3193   14.6713 O.3     1  UNL1       -0.4761
     45 C          63.9902   85.4647   15.3450 C.3     1  UNL1        0.1663
     46 C          65.2880   85.9804   14.7976 C.3     1  UNL1        0.0472
     47 C          63.3882   86.0944   16.5662 C.3     1  UNL1        0.0472
@<TRIPOS>BOND
     1    42    43    1
     2    43     1    1
     3     1     2   ar
     4     2     3   ar
     5     3     4   ar
     6     4     5   ar
     7     5     6   ar
     8     6    44    1
     9    44    45    1
    10    45    46    1
    11    45    47    1
    12     4     7    1
    13     7    12    1
    14    12    13   ar
    15    13    14   ar
    16    14    15   ar
    17    15    16    1
    18    15    17   ar
    19    17    18   ar
    20     7     8    1
    21     8    19    1
    22    19    20   ar
    23    20    21   ar
    24    21    22   ar
    25    22    25    1
    26    25    26    1
    27    25    27    1
    28    28    27    1
    29    28    29    1
    30    29    30    1
    31    30    31    1
    32    31    34    1
    33    34    35    1
    34    35    36    1
    35    36    37    1
    36    37    38    1
    37    37    39   am
    38    39    40    2
    39    39    41    1
    40    31    32    1
    41    32    33    1
    42    22    23   ar
    43    23    24   ar
    44     8     9   am
    45     9    10    2
    46     9    11    1
    47     6     1   ar
    48    18    12   ar
    49    24    19   ar
    50    11     3    1
    51    33    28    1
    52    41    34    1
@<TRIPOS>MOLECULE
*****
 47 52 0 0 0
SMALL
GASTEIGER

@<TRIPOS>ATOM
      1 C          66.4046   95.5838   11.1612 C.ar    1  UNL1        0.1721
      2 C          66.8904   95.0958   12.4938 C.ar    1  UNL1        0.0360
      3 C          66.3439   93.8240   13.0715 C.ar    1  UNL1       -0.0119
      4 C          65.3116   93.0402   12.3166 C.ar    1  UNL1       -0.0000
      5 C          64.8257   93.5282   10.9841 C.ar    1  UNL1        0.0374
      6 C          65.3723   94.8000   10.4063 C.ar    1  UNL1        0.1718
      7 C          64.7650   91.7683   12.8943 C.3     1  UNL1        0.1245
      8 N          65.2508   91.2803   14.2269 N.am    1  UNL1       -0.2523
      9 C          66.2833   92.0642   14.9818 C.2     1  UNL1        0.2342
     10 O          66.7691   91.5761   16.3144 O.2     1  UNL1       -0.2742
     11 C          66.8298   93.3360   14.4041 C.3     1  UNL1        0.1118
     12 C          63.7327   90.9845   12.1395 C.ar    1  UNL1        0.0003
     13 C          62.6022   90.3290   12.8759 C.ar    1  UNL1       -0.0015
     14 C          61.5698   89.5452   12.1211 C.ar    1  UNL1        0.0111
     15 C          61.6679   89.4168   10.6298 C.ar    1  UNL1        0.0577
     16 CL         60.6355   88.6330    9.8749 Cl      1  UNL1       -0.0822
     17 C          62.7984   90.0723    9.8934 C.ar    1  UNL1        0.0111
     18 C          63.8308   90.8562   10.6482 C.ar    1  UNL1       -0.0015
     19 C          64.7043   90.0085   14.8046 C.ar    1  UNL1        0.0545
     20 C          63.6772   90.0613   15.8965 C.ar    1  UNL1        0.0162
     21 C          63.1307   88.7895   16.4742 C.ar    1  UNL1        0.0158
     22 C          63.6113   87.4648   15.9601 C.ar    1  UNL1        0.0480
     23 C          64.6384   87.4120   14.8681 C.ar    1  UNL1        0.0158
     24 C          65.1850   88.6838   14.2904 C.ar    1  UNL1        0.0162
     25 N          63.0647   86.1930   16.5378 N.pl3   1  UNL1       -0.3058
     26 C          62.3993   86.2050   17.8820 C.3     1  UNL1        0.1122
     27 C          63.1837   84.9091   15.7712 C.3     1  UNL1        0.0908
     28 C          62.9938   84.9037   14.2833 C.3     1  UNL1        0.0199
     29 C          63.8434   84.0167   13.4220 C.3     1  UNL1        0.0031
     30 C          63.6535   84.0113   11.9341 C.3     1  UNL1        0.0160
     31 C          62.6141   84.8928   11.3074 C.3     1  UNL1        0.0580
     32 C          61.7647   85.7797   12.1686 C.3     1  UNL1        0.0160
     33 C          61.9545   85.7852   13.6566 C.3     1  UNL1        0.0031
     34 N          62.4243   84.8874    9.8195 N.3     1  UNL1       -0.2649
     35 C          63.4869   84.3132    8.9299 C.3     1  UNL1        0.0942
     36 C          63.2970   84.3078    7.4420 C.3     1  UNL1        0.1108
     37 N          62.0446   84.8765    6.8436 N.am    1  UNL1       -0.2752
     38 C          61.8547   84.8711    5.3557 C.3     1  UNL1        0.1149
     39 C          60.9821   85.4507    7.7332 C.2     1  UNL1        0.2421
     40 O          59.7296   86.0194    7.1348 O.2     1  UNL1       -0.2734
     41 C          61.1719   85.4561    9.2211 C.3     1  UNL1        0.1586
     42 C          68.0409   96.8043    9.5540 C.3     1  UNL1        0.2526
     43 O          66.9512   96.8557   10.5835 O.3     1  UNL1       -0.4684
     44 O          64.8864   95.2880    9.0737 O.3     1  UNL1       -0.4761
     45 C          65.8668   95.5592    7.9714 C.3     1  UNL1        0.1663
     46 C          65.6764   96.7456    7.0733 C.3     1  UNL1        0.0472
     47 C          67.0377   94.6442    7.7670 C.3     1  UNL1        0.0472
@<TRIPOS>BOND
     1    42    43    1
     2    43     1    1
     3     1     2   ar
     4     2     3   ar
     5     3     4   ar
     6     4     5   ar
     7     5     6   ar
     8     6    44    1
     9    44    45    1
    10    45    46    1
    11    45    47    1
    12     4     7    1
    13     7    12    1
    14    12    13   ar
    15    13    14   ar
    16    14    15   ar
    17    15    16    1
    18    15    17   ar
    19    17    18   ar
    20     7     8    1
    21     8    19    1
    22    19    20   ar
    23    20    21   ar
    24    21    22   ar
    25    22    25    1
    26    25    26    1
    27    25    27    1
    28    28    27    1
    29    28    29    1
    30    29    30    1
    31    30    31    1
    32    31    34    1
    33    34    35    1
    34    35    36    1
    35    36    37    1
    36    37    38    1
    37    37    39   am
    38    39    40    2
    39    39    41    1
    40    31    32    1
    41    32    33    1
    42    22    23   ar
    43    23    24   ar
    44     8     9   am
    45     9    10    2
    46     9    11    1
    47     6     1   ar
    48    18    12   ar
    49    24    19   ar
    50    11     3    1
    51    33    28    1
    52    41    34    1
@<TRIPOS>MOLECULE
*****
 47 52 0 0 0
SMALL
GASTEIGER

@<TRIPOS>ATOM
      1 C          61.9163   95.3535   -5.2023 C.ar    1  UNL1        0.1721
      2 C          60.7360   94.4941   -4.8585 C.ar    1  UNL1        0.0360
      3 C          60.5068   94.0676   -3.4388 C.ar    1  UNL1       -0.0119
      4 C          61.4580   94.5006   -2.3628 C.ar    1  UNL1       -0.0000
      5 C          62.6383   95.3600   -2.7065 C.ar    1  UNL1        0.0374
      6 C          62.8675   95.7865   -4.1262 C.ar    1  UNL1        0.1718
      7 C          61.2288   94.0741   -0.9431 C.3     1  UNL1        0.1245
      8 N          60.0484   93.2147   -0.5994 N.am    1  UNL1       -0.2523
      9 C          59.0972   92.7817   -1.6754 C.2     1  UNL1        0.2342
     10 O          57.9169   91.9223   -1.3317 O.2     1  UNL1       -0.2742
     11 C          59.3264   93.2082   -3.0952 C.3     1  UNL1        0.1118
     12 C          62.1799   94.5070    0.1329 C.ar    1  UNL1        0.0003
     13 C          61.9105   95.7600    0.9124 C.ar    1  UNL1       -0.0015
     14 C          62.8617   96.1930    1.9884 C.ar    1  UNL1        0.0111
     15 C          64.0822   95.3730    2.2850 C.ar    1  UNL1        0.0577
     16 CL         65.0334   95.8060    3.3611 Cl      1  UNL1       -0.0822
     17 C          64.3516   94.1201    1.5055 C.ar    1  UNL1        0.0111
     18 C          63.4005   93.6871    0.4295 C.ar    1  UNL1       -0.0015
     19 C          59.8192   92.7882    0.8203 C.ar    1  UNL1        0.0545
     20 C          60.9853   92.4320    1.6940 C.ar    1  UNL1        0.0162
     21 C          60.7561   92.0055    3.1137 C.ar    1  UNL1        0.0158
     22 C          59.3609   91.9353    3.6598 C.ar    1  UNL1        0.0480
     23 C          58.1947   92.2915    2.7861 C.ar    1  UNL1        0.0158
     24 C          58.4239   92.7180    1.3664 C.ar    1  UNL1        0.0162
     25 N          59.1317   91.5088    5.0795 N.pl3   1  UNL1       -0.3058
     26 C          59.2641   92.5054    6.1926 C.3     1  UNL1        0.1122
     27 C          58.7701   90.0856    5.3860 C.3     1  UNL1        0.0908
     28 C          59.4462   89.3667    6.5156 C.3     1  UNL1        0.0199
     29 C          60.0224   90.1443    7.6616 C.3     1  UNL1        0.0031
     30 C          60.6985   89.4253    8.7912 C.3     1  UNL1        0.0160
     31 C          60.7984   87.9287    8.7747 C.3     1  UNL1        0.0580
     32 C          60.2223   87.1511    7.6287 C.3     1  UNL1        0.0160
     33 C          59.5461   87.8701    6.4991 C.3     1  UNL1        0.0031
     34 N          61.4745   87.2097    9.9042 N.3     1  UNL1       -0.2649
     35 C          61.4387   85.7114    9.9680 C.3     1  UNL1        0.0942
     36 C          62.1148   84.9924   11.0975 C.3     1  UNL1        0.1108
     37 N          62.8268   85.7717   12.1634 N.am    1  UNL1       -0.2752
     38 C          63.5029   85.0527   13.2929 C.3     1  UNL1        0.1149
     39 C          62.8626   87.2699   12.0996 C.2     1  UNL1        0.2421
     40 O          63.5745   88.0492   13.1655 O.2     1  UNL1       -0.2734
     41 C          62.1864   87.9889   10.9701 C.3     1  UNL1        0.1586
     42 C          61.0389   96.4311   -7.3974 C.3     1  UNL1        0.2526
     43 O          62.1455   95.7800   -6.6220 O.3     1  UNL1       -0.4684
     44 O          64.0479   96.6459   -4.4699 O.3     1  UNL1       -0.4761
     45 C          65.2980   96.0205   -5.0140 C.3     1  UNL1        0.1663
     46 C          66.5484   96.8381   -5.1488 C.3     1  UNL1        0.0472
     47 C          65.2977   94.5774   -5.4233 C.3     1  UNL1        0.0472
@<TRIPOS>BOND
     1    42    43    1
     2    43     1    1
     3     1     2   ar
     4     2     3   ar
     5     3     4   ar
     6     4     5   ar
     7     5     6   ar
     8     6    44    1
     9    44    45    1
    10    45    46    1
    11    45    47    1
    12     4     7    1
    13     7    12    1
    14    12    13   ar
    15    13    14   ar
    16    14    15   ar
    17    15    16    1
    18    15    17   ar
    19    17    18   ar
    20     7     8    1
    21     8    19    1
    22    19    20   ar
    23    20    21   ar
    24    21    22   ar
    25    22    25    1
    26    25    26    1
    27    25    27    1
    28    28    27    1
    29    28    29    1
    30    29    30    1
    31    30    31    1
    32    31    34    1
    33    34    35    1
    34    35    36    1
    35    36    37    1
    36    37    38    1
    37    37    39   am
    38    39    40    2
    39    39    41    1
    40    31    32    1
    41    32    33    1
    42    22    23   ar
    43    23    24   ar
    44     8     9   am
    45     9    10    2
    46     9    11    1
    47     6     1   ar
    48    18    12   ar
    49    24    19   ar
    50    11     3    1
    51    33    28    1
    52    41    34    1
