@<TRIPOS>MOLECULE
*****
 25 28 0 0 0
SMALL
GASTEIGER

@<TRIPOS>ATOM
      1 C          63.9118   87.8165   13.9133 C.3     1  UNL1        0.0523
      2 C          64.0967   89.2921   13.7175 C.ar    1  UNL1        0.0656
      3 C          64.9741   90.1878   14.5410 C.ar    1  UNL1        0.0739
      4 C          64.8562   91.5804   13.9962 C.ar    1  UNL1        0.2434
      5 N          63.9060   91.5455   12.8361 N.ar    1  UNL1       -0.1277
      6 N          63.4366   90.1313   12.6639 N.ar    1  UNL1       -0.2308
      7 C          62.4757   89.6421   11.6210 C.ar    1  UNL1        0.0825
      8 C          61.2869   90.4765   11.2462 C.ar    1  UNL1        0.0191
      9 C          60.3261   89.9873   10.2034 C.ar    1  UNL1        0.0015
     10 C          60.5540   88.6637    9.5353 C.ar    1  UNL1        0.0001
     11 C          59.5932   88.1745    8.4925 C.ar    1  UNL1        0.0000
     12 C          59.8212   86.8510    7.8246 C.ar    1  UNL1        0.0000
     13 C          61.0101   86.0166    8.1994 C.ar    1  UNL1        0.0000
     14 C          61.9709   86.5058    9.2422 C.ar    1  UNL1        0.0000
     15 C          61.7429   87.8293    9.9102 C.ar    1  UNL1        0.0015
     16 C          62.7037   88.3186   10.9530 C.ar    1  UNL1        0.0191
     17 O          65.5643   92.7947   14.5197 O.3     1  UNL1       -0.4577
     18 C          66.6002   93.4797   13.6785 C.3     1  UNL1        0.2244
     19 C          66.2014   94.1559   12.4004 C.3     1  UNL1        0.1202
     20 N          66.9024   93.8123   11.1195 N.3     1  UNL1       -0.2653
     21 C          67.4267   92.4241   10.9006 C.3     1  UNL1        0.1047
     22 C          68.1277   92.0805    9.6198 C.3     1  UNL1        0.1595
     23 O          68.3043   93.1251    8.5580 O.3     1  UNL1       -0.3508
     24 C          67.7800   94.5133    8.7769 C.3     1  UNL1        0.1595
     25 C          67.0790   94.8569   10.0576 C.3     1  UNL1        0.1047
@<TRIPOS>BOND
     1     1     2    1
     2     2     3   ar
     3     3     4   ar
     4     4    17    1
     5    17    18    1
     6    18    19    1
     7    19    20    1
     8    20    21    1
     9    21    22    1
    10    22    23    1
    11    23    24    1
    12    24    25    1
    13     4     5   ar
    14     5     6   ar
    15     6     7    1
    16     7     8   ar
    17     8     9   ar
    18     9    10   ar
    19    10    11   ar
    20    11    12   ar
    21    12    13   ar
    22    13    14   ar
    23    14    15   ar
    24    15    16   ar
    25     6     2   ar
    26    16     7   ar
    27    25    20    1
    28    15    10   ar
@<TRIPOS>MOLECULE
*****
 25 28 0 0 0
SMALL
GASTEIGER

@<TRIPOS>ATOM
      1 C          61.1184   87.2856    9.6189 C.3     1  UNL1        0.0523
      2 C          61.9918   87.7861   10.7310 C.ar    1  UNL1        0.0656
      3 C          62.2447   89.2243   11.0744 C.ar    1  UNL1        0.0739
      4 C          63.1749   89.2633   12.2505 C.ar    1  UNL1        0.2434
      5 N          63.4970   87.8494   12.6340 N.ar    1  UNL1       -0.1277
      6 N          62.7658   86.9365   11.6949 N.ar    1  UNL1       -0.2308
      7 C          62.8022   85.4370   11.7159 C.ar    1  UNL1        0.0825
      8 C          63.2014   84.6791   10.4845 C.ar    1  UNL1        0.0191
      9 C          63.2378   83.1798   10.5055 C.ar    1  UNL1        0.0015
     10 C          62.8749   82.4381   11.7579 C.ar    1  UNL1        0.0001
     11 C          62.9113   80.9388   11.7789 C.ar    1  UNL1        0.0000
     12 C          62.5484   80.1972   13.0312 C.ar    1  UNL1        0.0000
     13 C          62.1492   80.9551   14.2626 C.ar    1  UNL1        0.0000
     14 C          62.1128   82.4545   14.2416 C.ar    1  UNL1        0.0000
     15 C          62.4757   83.1960   12.9893 C.ar    1  UNL1        0.0015
     16 C          62.4393   84.6955   12.9682 C.ar    1  UNL1        0.0191
     17 O          63.6922   90.4993   12.9248 O.3     1  UNL1       -0.4577
     18 C          64.1565   91.6642   12.1017 C.3     1  UNL1        0.2244
     19 C          65.3692   92.4419   12.5194 C.3     1  UNL1        0.1202
     20 N          66.1508   93.2171   11.5005 N.3     1  UNL1       -0.2653
     21 C          66.9821   92.4930   10.4833 C.3     1  UNL1        0.1047
     22 C          67.7637   93.2681    9.4644 C.3     1  UNL1        0.1595
     23 O          67.7142   94.7672    9.4627 O.3     1  UNL1       -0.3508
     24 C          66.8830   95.4913   10.4800 C.3     1  UNL1        0.1595
     25 C          66.1013   94.7163   11.4988 C.3     1  UNL1        0.1047
@<TRIPOS>BOND
     1     1     2    1
     2     2     3   ar
     3     3     4   ar
     4     4    17    1
     5    17    18    1
     6    18    19    1
     7    19    20    1
     8    20    21    1
     9    21    22    1
    10    22    23    1
    11    23    24    1
    12    24    25    1
    13     4     5   ar
    14     5     6   ar
    15     6     7    1
    16     7     8   ar
    17     8     9   ar
    18     9    10   ar
    19    10    11   ar
    20    11    12   ar
    21    12    13   ar
    22    13    14   ar
    23    14    15   ar
    24    15    16   ar
    25     6     2   ar
    26    16     7   ar
    27    25    20    1
    28    15    10   ar
@<TRIPOS>MOLECULE
*****
 25 28 0 0 0
SMALL
GASTEIGER

@<TRIPOS>ATOM
      1 C          61.2190   86.7531    9.0103 C.3     1  UNL1        0.0523
      2 C          61.9093   87.3650   10.1931 C.ar    1  UNL1        0.0656
      3 C          62.0332   88.8322   10.4799 C.ar    1  UNL1        0.0739
      4 C          62.7973   88.9912   11.7609 C.ar    1  UNL1        0.2434
      5 N          63.1456   87.6223   12.2658 N.ar    1  UNL1       -0.1277
      6 N          62.5968   86.6174   11.2969 N.ar    1  UNL1       -0.2308
      7 C          62.7147   85.1263   11.4115 C.ar    1  UNL1        0.0825
      8 C          63.2694   84.3279   10.2692 C.ar    1  UNL1        0.0191
      9 C          63.3873   82.8369   10.3838 C.ar    1  UNL1        0.0015
     10 C          62.9506   82.1444   11.6408 C.ar    1  UNL1        0.0001
     11 C          63.0686   80.6535   11.7554 C.ar    1  UNL1        0.0000
     12 C          62.6319   79.9610   13.0122 C.ar    1  UNL1        0.0000
     13 C          62.0773   80.7595   14.1545 C.ar    1  UNL1        0.0000
     14 C          61.9593   82.2504   14.0399 C.ar    1  UNL1        0.0000
     15 C          62.3960   82.9429   12.7830 C.ar    1  UNL1        0.0015
     16 C          62.2781   84.4339   12.6684 C.ar    1  UNL1        0.0191
     17 O          63.1510   90.2907   12.4211 O.3     1  UNL1       -0.4577
     18 C          63.2043   90.3818   13.9174 C.3     1  UNL1        0.2244
     19 C          64.2693   89.6467   14.6761 C.3     1  UNL1        0.1202
     20 N          63.9175   88.4201   15.4645 N.3     1  UNL1       -0.2653
     21 C          63.1222   88.5447   16.7302 C.3     1  UNL1        0.1047
     22 C          62.7704   87.3181   17.5187 C.3     1  UNL1        0.1595
     23 O          63.2138   85.9670   17.0414 O.3     1  UNL1       -0.3508
     24 C          64.0091   85.8424   15.7757 C.3     1  UNL1        0.1595
     25 C          64.3609   87.0689   14.9872 C.3     1  UNL1        0.1047
@<TRIPOS>BOND
     1     1     2    1
     2     2     3   ar
     3     3     4   ar
     4     4    17    1
     5    17    18    1
     6    18    19    1
     7    19    20    1
     8    20    21    1
     9    21    22    1
    10    22    23    1
    11    23    24    1
    12    24    25    1
    13     4     5   ar
    14     5     6   ar
    15     6     7    1
    16     7     8   ar
    17     8     9   ar
    18     9    10   ar
    19    10    11   ar
    20    11    12   ar
    21    12    13   ar
    22    13    14   ar
    23    14    15   ar
    24    15    16   ar
    25     6     2   ar
    26    16     7   ar
    27    25    20    1
    28    15    10   ar
@<TRIPOS>MOLECULE
*****
 25 28 0 0 0
SMALL
GASTEIGER

@<TRIPOS>ATOM
      1 C          63.0119   87.9589   17.1176 C.3     1  UNL1        0.0523
      2 C          63.5225   88.7447   15.9464 C.ar    1  UNL1        0.0656
      3 C          63.6316   90.2387   15.8672 C.ar    1  UNL1        0.0739
      4 C          64.1901   90.5919   14.5205 C.ar    1  UNL1        0.2434
      5 N          64.4262   89.3162   13.7675 N.ar    1  UNL1       -0.1277
      6 N          64.0136   88.1747   14.6487 N.ar    1  UNL1       -0.2308
      7 C          64.0803   86.7186   14.2945 C.ar    1  UNL1        0.0825
      8 C          64.9197   85.7848   15.1153 C.ar    1  UNL1        0.0191
      9 C          64.9864   84.3288   14.7611 C.ar    1  UNL1        0.0015
     10 C          64.2138   83.8064   13.5862 C.ar    1  UNL1        0.0001
     11 C          64.2806   82.3504   13.2321 C.ar    1  UNL1        0.0000
     12 C          63.5080   81.8281   12.0572 C.ar    1  UNL1        0.0000
     13 C          62.6687   82.7619   11.2365 C.ar    1  UNL1        0.0000
     14 C          62.6019   84.2180   11.5906 C.ar    1  UNL1        0.0000
     15 C          63.3745   84.7402   12.7655 C.ar    1  UNL1        0.0015
     16 C          63.3078   86.1963   13.1197 C.ar    1  UNL1        0.0191
     17 O          64.4644   91.9774   14.0156 O.3     1  UNL1       -0.4577
     18 C          65.3141   92.1765   12.7956 C.3     1  UNL1        0.2244
     19 C          66.2342   93.3578   12.7070 C.3     1  UNL1        0.1202
     20 N          66.7507   93.8079   11.3725 N.3     1  UNL1       -0.2653
     21 C          66.5430   95.2251   10.9272 C.3     1  UNL1        0.1047
     22 C          67.0594   95.6752    9.5928 C.3     1  UNL1        0.1595
     23 O          67.7835   94.7082    8.7038 O.3     1  UNL1       -0.3508
     24 C          67.9911   93.2910    9.1491 C.3     1  UNL1        0.1595
     25 C          67.4747   92.8408   10.4835 C.3     1  UNL1        0.1047
@<TRIPOS>BOND
     1     1     2    1
     2     2     3   ar
     3     3     4   ar
     4     4    17    1
     5    17    18    1
     6    18    19    1
     7    19    20    1
     8    20    21    1
     9    21    22    1
    10    22    23    1
    11    23    24    1
    12    24    25    1
    13     4     5   ar
    14     5     6   ar
    15     6     7    1
    16     7     8   ar
    17     8     9   ar
    18     9    10   ar
    19    10    11   ar
    20    11    12   ar
    21    12    13   ar
    22    13    14   ar
    23    14    15   ar
    24    15    16   ar
    25     6     2   ar
    26    16     7   ar
    27    25    20    1
    28    15    10   ar
@<TRIPOS>MOLECULE
*****
 25 28 0 0 0
SMALL
GASTEIGER

@<TRIPOS>ATOM
      1 C          63.0930   89.7422   16.8802 C.3     1  UNL1        0.0523
      2 C          63.4302   88.4552   16.1875 C.ar    1  UNL1        0.0656
      3 C          63.3599   87.0840   16.7918 C.ar    1  UNL1        0.0739
      4 C          63.7832   86.0946   15.7467 C.ar    1  UNL1        0.2434
      5 N          64.1151   86.8543   14.4966 N.ar    1  UNL1       -0.1277
      6 N          63.8970   88.3132   14.7691 N.ar    1  UNL1       -0.2308
      7 C          64.1085   89.4335   13.7942 C.ar    1  UNL1        0.0825
      8 C          63.3616   89.4468   12.4935 C.ar    1  UNL1        0.0191
      9 C          63.5731   90.5670   11.5186 C.ar    1  UNL1        0.0015
     10 C          64.5315   91.6740   11.8445 C.ar    1  UNL1        0.0001
     11 C          64.7430   92.7942   10.8697 C.ar    1  UNL1        0.0000
     12 C          65.7014   93.9011   11.1956 C.ar    1  UNL1        0.0000
     13 C          66.4483   93.8877   12.4964 C.ar    1  UNL1        0.0000
     14 C          66.2368   92.7675   13.4712 C.ar    1  UNL1        0.0000
     15 C          65.2784   91.6606   13.1453 C.ar    1  UNL1        0.0015
     16 C          65.0669   90.5403   14.1201 C.ar    1  UNL1        0.0191
     17 O          63.8609   84.6069   15.9211 O.3     1  UNL1       -0.4577
     18 C          62.8908   83.7160   15.2033 C.3     1  UNL1        0.2244
     19 C          63.3748   82.8001   14.1185 C.3     1  UNL1        0.1202
     20 N          63.3939   83.2692   12.6938 N.3     1  UNL1       -0.2653
     21 C          62.5995   84.4761   12.2909 C.3     1  UNL1        0.1047
     22 C          62.6186   84.9451   10.8663 C.3     1  UNL1        0.1595
     23 O          63.4320   84.2073    9.8446 O.3     1  UNL1       -0.3508
     24 C          64.2263   83.0004   10.2475 C.3     1  UNL1        0.1595
     25 C          64.2073   82.5313   11.6721 C.3     1  UNL1        0.1047
@<TRIPOS>BOND
     1     1     2    1
     2     2     3   ar
     3     3     4   ar
     4     4    17    1
     5    17    18    1
     6    18    19    1
     7    19    20    1
     8    20    21    1
     9    21    22    1
    10    22    23    1
    11    23    24    1
    12    24    25    1
    13     4     5   ar
    14     5     6   ar
    15     6     7    1
    16     7     8   ar
    17     8     9   ar
    18     9    10   ar
    19    10    11   ar
    20    11    12   ar
    21    12    13   ar
    22    13    14   ar
    23    14    15   ar
    24    15    16   ar
    25     6     2   ar
    26    16     7   ar
    27    25    20    1
    28    15    10   ar
@<TRIPOS>MOLECULE
*****
 25 28 0 0 0
SMALL
GASTEIGER

@<TRIPOS>ATOM
      1 C          63.7063   83.6276    9.9078 C.3     1  UNL1        0.0523
      2 C          63.5042   84.0488   11.3331 C.ar    1  UNL1        0.0656
      3 C          63.9983   83.3186   12.5468 C.ar    1  UNL1        0.0739
      4 C          63.5720   84.0926   13.7589 C.ar    1  UNL1        0.2434
      5 N          62.8145   85.3011   13.2944 N.ar    1  UNL1       -0.1277
      6 N          62.7726   85.2740   11.7953 N.ar    1  UNL1       -0.2308
      7 C          62.1147   86.2932   10.9130 C.ar    1  UNL1        0.0825
      8 C          62.3954   87.7529   11.1148 C.ar    1  UNL1        0.0191
      9 C          61.7375   88.7721   10.2325 C.ar    1  UNL1        0.0015
     10 C          60.7988   88.3317    9.1485 C.ar    1  UNL1        0.0001
     11 C          60.1410   89.3509    8.2663 C.ar    1  UNL1        0.0000
     12 C          59.2024   88.9105    7.1823 C.ar    1  UNL1        0.0000
     13 C          58.9217   87.4508    6.9805 C.ar    1  UNL1        0.0000
     14 C          59.5796   86.4316    7.8627 C.ar    1  UNL1        0.0000
     15 C          60.5182   86.8721    8.9467 C.ar    1  UNL1        0.0015
     16 C          61.1761   85.8528    9.8290 C.ar    1  UNL1        0.0191
     17 O          63.8537   83.7231   15.1850 O.3     1  UNL1       -0.4577
     18 C          64.3337   84.7668   16.1495 C.3     1  UNL1        0.2244
     19 C          63.3948   85.8341   16.6284 C.3     1  UNL1        0.1202
     20 N          63.5650   87.2486   16.1591 N.3     1  UNL1       -0.2653
     21 C          64.2914   87.5313   14.8775 C.3     1  UNL1        0.1047
     22 C          64.4616   88.9457   14.4082 C.3     1  UNL1        0.1595
     23 O          63.9053   90.0774   15.2203 O.3     1  UNL1       -0.3508
     24 C          63.1789   89.7948   16.5019 C.3     1  UNL1        0.1595
     25 C          63.0087   88.3804   16.9712 C.3     1  UNL1        0.1047
@<TRIPOS>BOND
     1     1     2    1
     2     2     3   ar
     3     3     4   ar
     4     4    17    1
     5    17    18    1
     6    18    19    1
     7    19    20    1
     8    20    21    1
     9    21    22    1
    10    22    23    1
    11    23    24    1
    12    24    25    1
    13     4     5   ar
    14     5     6   ar
    15     6     7    1
    16     7     8   ar
    17     8     9   ar
    18     9    10   ar
    19    10    11   ar
    20    11    12   ar
    21    12    13   ar
    22    13    14   ar
    23    14    15   ar
    24    15    16   ar
    25     6     2   ar
    26    16     7   ar
    27    25    20    1
    28    15    10   ar
@<TRIPOS>MOLECULE
*****
 25 28 0 0 0
SMALL
GASTEIGER

@<TRIPOS>ATOM
      1 C          63.2164   90.3304   16.7302 C.3     1  UNL1        0.0523
      2 C          63.4888   88.9987   16.0960 C.ar    1  UNL1        0.0656
      3 C          63.3898   87.6633   16.7721 C.ar    1  UNL1        0.0739
      4 C          63.7478   86.6078   15.7682 C.ar    1  UNL1        0.2434
      5 N          64.0680   87.2908   14.4717 N.ar    1  UNL1       -0.1277
      6 N          63.9080   88.7684   14.6743 N.ar    1  UNL1       -0.2308
      7 C          64.1284   89.8295   13.6372 C.ar    1  UNL1        0.0825
      8 C          63.3932   89.7661   12.3313 C.ar    1  UNL1        0.0191
      9 C          63.6136   90.8272   11.2942 C.ar    1  UNL1        0.0015
     10 C          64.5692   91.9517   11.5631 C.ar    1  UNL1        0.0001
     11 C          64.7896   93.0128   10.5260 C.ar    1  UNL1        0.0000
     12 C          65.7452   94.1373   10.7949 C.ar    1  UNL1        0.0000
     13 C          66.4804   94.2007   12.1008 C.ar    1  UNL1        0.0000
     14 C          66.2600   93.1396   13.1379 C.ar    1  UNL1        0.0000
     15 C          65.3044   92.0151   12.8690 C.ar    1  UNL1        0.0015
     16 C          65.0840   90.9540   13.9061 C.ar    1  UNL1        0.0191
     17 O          63.7799   85.1290   16.0171 O.3     1  UNL1       -0.4577
     18 C          64.5774   84.2338   15.1156 C.3     1  UNL1        0.2244
     19 C          64.0502   83.8745   13.7580 C.3     1  UNL1        0.1202
     20 N          63.2596   82.6137   13.5700 N.3     1  UNL1       -0.2653
     21 C          63.6515   81.6349   12.5031 C.3     1  UNL1        0.1047
     22 C          62.8608   80.3741   12.3150 C.3     1  UNL1        0.1595
     23 O          61.6784   80.0922   13.1938 O.3     1  UNL1       -0.3508
     24 C          61.2865   81.0711   14.2606 C.3     1  UNL1        0.1595
     25 C          62.0771   82.3318   14.4488 C.3     1  UNL1        0.1047
@<TRIPOS>BOND
     1     1     2    1
     2     2     3   ar
     3     3     4   ar
     4     4    17    1
     5    17    18    1
     6    18    19    1
     7    19    20    1
     8    20    21    1
     9    21    22    1
    10    22    23    1
    11    23    24    1
    12    24    25    1
    13     4     5   ar
    14     5     6   ar
    15     6     7    1
    16     7     8   ar
    17     8     9   ar
    18     9    10   ar
    19    10    11   ar
    20    11    12   ar
    21    12    13   ar
    22    13    14   ar
    23    14    15   ar
    24    15    16   ar
    25     6     2   ar
    26    16     7   ar
    27    25    20    1
    28    15    10   ar
@<TRIPOS>MOLECULE
*****
 25 28 0 0 0
SMALL
GASTEIGER

@<TRIPOS>ATOM
      1 C          62.8391   89.2589   17.2317 C.3     1  UNL1        0.0523
      2 C          63.2614   88.0180   16.5025 C.ar    1  UNL1        0.0656
      3 C          63.0961   86.6092   16.9906 C.ar    1  UNL1        0.0739
      4 C          63.6557   85.6885   15.9469 C.ar    1  UNL1        0.2434
      5 N          64.1668   86.5281   14.8139 N.ar    1  UNL1       -0.1277
      6 N          63.9231   87.9678   15.1573 N.ar    1  UNL1       -0.2308
      7 C          64.2787   89.1499   14.3051 C.ar    1  UNL1        0.0825
      8 C          65.3141   90.1285   14.7744 C.ar    1  UNL1        0.0191
      9 C          65.6697   91.3106   13.9222 C.ar    1  UNL1        0.0015
     10 C          64.9898   91.5141   12.6007 C.ar    1  UNL1        0.0001
     11 C          65.3454   92.6962   11.7485 C.ar    1  UNL1        0.0000
     12 C          64.6655   92.8997   10.4270 C.ar    1  UNL1        0.0000
     13 C          63.6300   91.9211    9.9577 C.ar    1  UNL1        0.0000
     14 C          63.2745   90.7391   10.8099 C.ar    1  UNL1        0.0000
     15 C          63.9543   90.5356   12.1314 C.ar    1  UNL1        0.0015
     16 C          63.5988   89.3534   12.9836 C.ar    1  UNL1        0.0191
     17 O          63.6970   84.1910   16.0230 O.3     1  UNL1       -0.4577
     18 C          62.9445   83.3681   15.0197 C.3     1  UNL1        0.2244
     19 C          63.6660   82.7672   13.8500 C.3     1  UNL1        0.1202
     20 N          63.5041   83.3621   12.4826 N.3     1  UNL1       -0.2653
     21 C          64.2230   82.7590   11.3123 C.3     1  UNL1        0.1047
     22 C          64.0610   83.3539    9.9449 C.3     1  UNL1        0.1595
     23 O          63.1803   84.5519    9.7478 O.3     1  UNL1       -0.3508
     24 C          62.4614   85.1550   10.9180 C.3     1  UNL1        0.1595
     25 C          62.6233   84.5602   12.2854 C.3     1  UNL1        0.1047
@<TRIPOS>BOND
     1     1     2    1
     2     2     3   ar
     3     3     4   ar
     4     4    17    1
     5    17    18    1
     6    18    19    1
     7    19    20    1
     8    20    21    1
     9    21    22    1
    10    22    23    1
    11    23    24    1
    12    24    25    1
    13     4     5   ar
    14     5     6   ar
    15     6     7    1
    16     7     8   ar
    17     8     9   ar
    18     9    10   ar
    19    10    11   ar
    20    11    12   ar
    21    12    13   ar
    22    13    14   ar
    23    14    15   ar
    24    15    16   ar
    25     6     2   ar
    26    16     7   ar
    27    25    20    1
    28    15    10   ar
@<TRIPOS>MOLECULE
*****
 25 28 0 0 0
SMALL
GASTEIGER

@<TRIPOS>ATOM
      1 C          62.4543   86.1180   17.7728 C.3     1  UNL1        0.0523
      2 C          62.9794   87.0325   16.7061 C.ar    1  UNL1        0.0656
      3 C          63.2581   88.4984   16.8603 C.ar    1  UNL1        0.0739
      4 C          63.7689   89.0137   15.5474 C.ar    1  UNL1        0.2434
      5 N          63.8058   87.8663   14.5818 N.ar    1  UNL1       -0.1277
      6 N          63.3179   86.6420   15.2980 N.ar    1  UNL1       -0.2308
      7 C          63.1908   85.2681   14.7093 C.ar    1  UNL1        0.0825
      8 C          62.7221   84.1270   15.5627 C.ar    1  UNL1        0.0191
      9 C          62.5950   82.7532   14.9741 C.ar    1  UNL1        0.0015
     10 C          62.9366   82.5204   13.5322 C.ar    1  UNL1        0.0001
     11 C          62.8094   81.1466   12.9436 C.ar    1  UNL1        0.0000
     12 C          63.1510   80.9139   11.5017 C.ar    1  UNL1        0.0000
     13 C          63.6196   82.0551   10.6483 C.ar    1  UNL1        0.0000
     14 C          63.7468   83.4289   11.2369 C.ar    1  UNL1        0.0000
     15 C          63.4052   83.6616   12.6788 C.ar    1  UNL1        0.0015
     16 C          63.5323   85.0354   13.2674 C.ar    1  UNL1        0.0191
     17 O          64.1719   90.4279   15.2519 O.3     1  UNL1       -0.4577
     18 C          64.9522   90.7415   14.0098 C.3     1  UNL1        0.2244
     19 C          65.4806   92.1273   13.7858 C.3     1  UNL1        0.1202
     20 N          66.8768   92.4754   14.2097 N.3     1  UNL1       -0.2653
     21 C          67.1006   93.4735   15.3068 C.3     1  UNL1        0.1047
     22 C          68.4967   93.8215   15.7307 C.3     1  UNL1        0.1595
     23 O          69.6689   93.1714   15.0575 O.3     1  UNL1       -0.3508
     24 C          69.4451   92.1733   13.9605 C.3     1  UNL1        0.1595
     25 C          68.0491   91.8253   13.5365 C.3     1  UNL1        0.1047
@<TRIPOS>BOND
     1     1     2    1
     2     2     3   ar
     3     3     4   ar
     4     4    17    1
     5    17    18    1
     6    18    19    1
     7    19    20    1
     8    20    21    1
     9    21    22    1
    10    22    23    1
    11    23    24    1
    12    24    25    1
    13     4     5   ar
    14     5     6   ar
    15     6     7    1
    16     7     8   ar
    17     8     9   ar
    18     9    10   ar
    19    10    11   ar
    20    11    12   ar
    21    12    13   ar
    22    13    14   ar
    23    14    15   ar
    24    15    16   ar
    25     6     2   ar
    26    16     7   ar
    27    25    20    1
    28    15    10   ar
