@<TRIPOS>MOLECULE
*****
 33 37 0 0 0
SMALL
GASTEIGER

@<TRIPOS>ATOM
      1 N          64.4340   91.1842   14.4543 N.ar    1  UNL1       -0.2954
      2 C          64.3478   91.3061   12.9617 C.ar    1  UNL1        0.2014
      3 N          65.5220   92.1139   12.4941 N.ar    1  UNL1       -0.2136
      4 C          66.3339   92.4913   13.6976 C.ar    1  UNL1        0.0999
      5 C          67.5986   93.2839   13.8469 C.ar    1  UNL1        0.0207
      6 C          68.1908   93.5019   15.2076 C.ar    1  UNL1        0.0016
      7 C          67.5185   92.9272   16.4191 C.ar    1  UNL1        0.0016
      8 C          66.2538   92.1346   16.2698 C.ar    1  UNL1        0.0188
      9 C          65.6615   91.9166   14.9091 C.ar    1  UNL1        0.0801
     10 N          63.2756   90.7226   12.0899 N.pl3   1  UNL1       -0.2794
     11 C          63.4439   90.7124   10.5995 C.3     1  UNL1        0.0949
     12 C          62.3717   90.1289    9.7277 C.3     1  UNL1        0.0373
     13 C          61.1313   89.5557   10.3463 C.3     1  UNL1        0.0574
     14 C          60.9631   89.5659   11.8368 C.3     1  UNL1        0.0373
     15 C          62.0353   90.1494   12.7086 C.3     1  UNL1        0.0949
     16 N          60.0592   88.9722    9.4745 N.3     1  UNL1       -0.2984
     17 H          60.2783   89.2445    8.5162 H       1  UNL1        0.1232
     18 C          59.8271   87.4904    9.4613 C.3     1  UNL1        0.0686
     19 C          60.9865   86.5483    9.5969 C.3     1  UNL1        0.0207
     20 C          61.7765   86.1520    8.3849 C.3     1  UNL1        0.0335
     21 C          62.9359   85.2100    8.5206 C.3     1  UNL1        0.1422
     22 O          63.3053   84.6643    9.8681 O.3     1  UNL1       -0.3538
     23 C          62.5152   85.0607   11.0800 C.3     1  UNL1        0.1422
     24 C          61.3558   86.0027   10.9444 C.3     1  UNL1        0.0335
     25 C          63.4633   90.4573   15.3371 C.3     1  UNL1        0.1354
     26 C          63.8561   86.0146   15.9346 C.ar    1  UNL1        0.1387
     27 C          64.4545   86.6640   14.7221 C.ar    1  UNL1        0.0366
     28 C          64.3235   88.1449   14.5229 C.ar    1  UNL1        0.0007
     29 C          63.5942   88.9765   15.5363 C.ar    1  UNL1        0.0007
     30 C          62.9959   88.3269   16.7488 C.ar    1  UNL1        0.0007
     31 C          63.1269   86.8460   16.9480 C.ar    1  UNL1        0.0366
     32 C          64.0512   83.6198   14.9459 C.3     1  UNL1        0.2525
     33 O          63.9871   84.5336   16.1338 O.3     1  UNL1       -0.4714
@<TRIPOS>BOND
     1    32    33    1
     2    33    26    1
     3    26    27   ar
     4    27    28   ar
     5    28    29   ar
     6    29    25    1
     7    25     1    1
     8     1     2   ar
     9     2    10    1
    10    10    11    1
    11    11    12    1
    12    12    13    1
    13    13    16    1
    14    16    18    1
    15    18    19    1
    16    19    20    1
    17    20    21    1
    18    21    22    1
    19    22    23    1
    20    23    24    1
    21    13    14    1
    22    14    15    1
    23     2     3   ar
    24     3     4   ar
    25     4     5   ar
    26     5     6   ar
    27     6     7   ar
    28     7     8   ar
    29     8     9   ar
    30    29    30   ar
    31    30    31   ar
    32    31    26   ar
    33     9     1   ar
    34    15    10    1
    35     9     4   ar
    36    24    19    1
    37    16    17    1
@<TRIPOS>MOLECULE
*****
 33 37 0 0 0
SMALL
GASTEIGER

@<TRIPOS>ATOM
      1 N          63.3339   84.3569   11.9935 N.ar    1  UNL1       -0.2954
      2 C          63.3042   85.1223   13.2832 C.ar    1  UNL1        0.2014
      3 N          63.0097   84.1538   14.3901 N.ar    1  UNL1       -0.2136
      4 C          62.8574   82.7899   13.7846 C.ar    1  UNL1        0.0999
      5 C          62.5622   81.4500   14.3906 C.ar    1  UNL1        0.0207
      6 C          62.4673   80.2355   13.5153 C.ar    1  UNL1        0.0016
      7 C          62.6677   80.3611   12.0341 C.ar    1  UNL1        0.0016
      8 C          62.9629   81.7010   11.4281 C.ar    1  UNL1        0.0188
      9 C          63.0578   82.9155   12.3033 C.ar    1  UNL1        0.0801
     10 N          63.5294   86.5971   13.4386 N.pl3   1  UNL1       -0.2794
     11 C          64.2293   87.1247   14.6558 C.3     1  UNL1        0.0949
     12 C          64.4545   88.5995   14.8113 C.3     1  UNL1        0.0373
     13 C          63.9798   89.5467   13.7495 C.3     1  UNL1        0.0574
     14 C          63.2799   89.0191   12.5323 C.3     1  UNL1        0.0373
     15 C          63.0547   87.5443   12.3768 C.3     1  UNL1        0.0949
     16 N          64.2050   91.0216   13.9050 N.3     1  UNL1       -0.2984
     17 H          63.2839   91.4589   13.9317 H       1  UNL1        0.1232
     18 C          64.9666   91.5435   15.0871 C.3     1  UNL1        0.0686
     19 C          66.3984   91.9627   14.9312 C.3     1  UNL1        0.0207
     20 C          67.1495   91.6159   13.6799 C.3     1  UNL1        0.0335
     21 C          68.5812   92.0352   13.5240 C.3     1  UNL1        0.1422
     22 O          69.2619   92.8013   14.6194 O.3     1  UNL1       -0.3538
     23 C          68.5108   93.1481   15.8706 C.3     1  UNL1        0.1422
     24 C          67.0791   92.7288   16.0265 C.3     1  UNL1        0.0335
     25 C          63.5941   84.9320   10.6327 C.3     1  UNL1        0.1354
     26 C          60.1910   86.6003    8.2067 C.ar    1  UNL1        0.1387
     27 C          60.1946   86.7545    9.6988 C.ar    1  UNL1        0.0366
     28 C          61.3290   86.1984   10.5074 C.ar    1  UNL1        0.0007
     29 C          62.4598   85.4881    9.8241 C.ar    1  UNL1        0.0007
     30 C          62.4560   85.3339    8.3320 C.ar    1  UNL1        0.0007
     31 C          61.3217   85.8900    7.5234 C.ar    1  UNL1        0.0366
     32 C          59.0115   88.6211    7.0773 C.3     1  UNL1        0.2525
     33 O          59.0566   87.1564    7.3981 O.3     1  UNL1       -0.4714
@<TRIPOS>BOND
     1    32    33    1
     2    33    26    1
     3    26    27   ar
     4    27    28   ar
     5    28    29   ar
     6    29    25    1
     7    25     1    1
     8     1     2   ar
     9     2    10    1
    10    10    11    1
    11    11    12    1
    12    12    13    1
    13    13    16    1
    14    16    18    1
    15    18    19    1
    16    19    20    1
    17    20    21    1
    18    21    22    1
    19    22    23    1
    20    23    24    1
    21    13    14    1
    22    14    15    1
    23     2     3   ar
    24     3     4   ar
    25     4     5   ar
    26     5     6   ar
    27     6     7   ar
    28     7     8   ar
    29     8     9   ar
    30    29    30   ar
    31    30    31   ar
    32    31    26   ar
    33     9     1   ar
    34    15    10    1
    35     9     4   ar
    36    24    19    1
    37    16    17    1
@<TRIPOS>MOLECULE
*****
 33 37 0 0 0
SMALL
GASTEIGER

@<TRIPOS>ATOM
      1 N          63.1289   85.0065   12.1138 N.ar    1  UNL1       -0.2954
      2 C          63.2221   85.8980   13.3165 C.ar    1  UNL1        0.2014
      3 N          62.9505   85.0644   14.5335 N.ar    1  UNL1       -0.2136
      4 C          62.6894   83.6576   14.0831 C.ar    1  UNL1        0.0999
      5 C          62.3656   82.4047   14.8414 C.ar    1  UNL1        0.0207
      6 C          62.1520   81.1159   14.1043 C.ar    1  UNL1        0.0016
      7 C          62.2623   81.0801   12.6088 C.ar    1  UNL1        0.0016
      8 C          62.5862   82.3331   11.8504 C.ar    1  UNL1        0.0188
      9 C          62.7997   83.6218   12.5876 C.ar    1  UNL1        0.0801
     10 N          63.5324   87.3655   13.3042 N.pl3   1  UNL1       -0.2794
     11 C          64.3293   87.9729   14.4204 C.3     1  UNL1        0.0949
     12 C          64.6396   89.4405   14.4081 C.3     1  UNL1        0.0373
     13 C          64.1530   90.3005   13.2797 C.3     1  UNL1        0.0574
     14 C          63.3560   89.6931   12.1636 C.3     1  UNL1        0.0373
     15 C          63.0457   88.2256   12.1758 C.3     1  UNL1        0.0949
     16 N          64.4633   91.7680   13.2675 N.3     1  UNL1       -0.2984
     17 H          64.0803   92.1572   14.1290 H       1  UNL1        0.1232
     18 C          65.8865   92.2330   13.1775 C.3     1  UNL1        0.0686
     19 C          66.4374   92.7130   11.8675 C.3     1  UNL1        0.0207
     20 C          67.5935   91.9983   11.2330 C.3     1  UNL1        0.0335
     21 C          68.1444   92.4783    9.9230 C.3     1  UNL1        0.1422
     22 O          67.5390   93.6731    9.2474 O.3     1  UNL1       -0.3538
     23 C          66.3829   94.3877    9.8820 C.3     1  UNL1        0.1422
     24 C          65.8321   93.9077   11.1920 C.3     1  UNL1        0.0335
     25 C          63.3297   85.4259   10.6877 C.3     1  UNL1        0.1354
     26 C          59.8427   86.9267    8.2714 C.ar    1  UNL1        0.1387
     27 C          59.9323   87.2426    9.7351 C.ar    1  UNL1        0.0366
     28 C          61.0947   86.7423   10.5404 C.ar    1  UNL1        0.0007
     29 C          62.1674   85.9261    9.8823 C.ar    1  UNL1        0.0007
     30 C          62.0778   85.6103    8.4186 C.ar    1  UNL1        0.0007
     31 C          60.9155   86.1106    7.6132 C.ar    1  UNL1        0.0366
     32 C          58.6952   88.8219    6.9143 C.3     1  UNL1        0.2525
     33 O          58.6804   87.4270    7.4660 O.3     1  UNL1       -0.4714
@<TRIPOS>BOND
     1    32    33    1
     2    33    26    1
     3    26    27   ar
     4    27    28   ar
     5    28    29   ar
     6    29    25    1
     7    25     1    1
     8     1     2   ar
     9     2    10    1
    10    10    11    1
    11    11    12    1
    12    12    13    1
    13    13    16    1
    14    16    18    1
    15    18    19    1
    16    19    20    1
    17    20    21    1
    18    21    22    1
    19    22    23    1
    20    23    24    1
    21    13    14    1
    22    14    15    1
    23     2     3   ar
    24     3     4   ar
    25     4     5   ar
    26     5     6   ar
    27     6     7   ar
    28     7     8   ar
    29     8     9   ar
    30    29    30   ar
    31    30    31   ar
    32    31    26   ar
    33     9     1   ar
    34    15    10    1
    35     9     4   ar
    36    24    19    1
    37    16    17    1
@<TRIPOS>MOLECULE
*****
 33 37 0 0 0
SMALL
GASTEIGER

@<TRIPOS>ATOM
      1 N          62.7282   85.0602   12.8437 N.ar    1  UNL1       -0.2954
      2 C          63.5406   85.6807   13.9414 C.ar    1  UNL1        0.2014
      3 N          64.2479   84.5793   14.6739 N.ar    1  UNL1       -0.2136
      4 C          63.8727   83.2781   14.0287 C.ar    1  UNL1        0.0999
      5 C          64.2650   81.8610   14.3252 C.ar    1  UNL1        0.0207
      6 C          63.7181   80.7411   13.4905 C.ar    1  UNL1        0.0016
      7 C          62.7789   81.0384   12.3593 C.ar    1  UNL1        0.0016
      8 C          62.3866   82.4555   12.0629 C.ar    1  UNL1        0.0188
      9 C          62.9335   83.5753   12.8976 C.ar    1  UNL1        0.0801
     10 N          63.6299   87.1454   14.2522 N.pl3   1  UNL1       -0.2794
     11 C          63.7787   88.1405   13.1397 C.3     1  UNL1        0.0949
     12 C          63.8680   89.6052   13.4505 C.3     1  UNL1        0.0373
     13 C          63.8085   90.0749   14.8738 C.3     1  UNL1        0.0574
     14 C          63.6596   89.0799   15.9863 C.3     1  UNL1        0.0373
     15 C          63.5703   87.6151   15.6755 C.3     1  UNL1        0.0949
     16 N          63.8978   91.5396   15.1846 N.3     1  UNL1       -0.2984
     17 H          63.0300   91.7940   15.6564 H       1  UNL1        0.1232
     18 C          65.0203   92.0592   16.0331 C.3     1  UNL1        0.0686
     19 C          66.3840   92.2497   15.4381 C.3     1  UNL1        0.0207
     20 C          66.6621   91.7903   14.0375 C.3     1  UNL1        0.0335
     21 C          68.0258   91.9807   13.4426 C.3     1  UNL1        0.1422
     22 O          69.1115   92.6307   14.2482 O.3     1  UNL1       -0.3538
     23 C          68.8334   93.0901   15.6488 C.3     1  UNL1        0.1422
     24 C          67.4696   92.8996   16.2437 C.3     1  UNL1        0.0335
     25 C          61.8626   85.7956   11.8639 C.3     1  UNL1        0.1354
     26 C          62.3649   85.0927    7.4476 C.ar    1  UNL1        0.1387
     27 C          63.3959   84.5824    8.4103 C.ar    1  UNL1        0.0366
     28 C          63.2284   84.8168    9.8824 C.ar    1  UNL1        0.0007
     29 C          62.0300   85.5613   10.3919 C.ar    1  UNL1        0.0007
     30 C          60.9990   86.0715    9.4291 C.ar    1  UNL1        0.0007
     31 C          61.1665   85.8372    7.9571 C.ar    1  UNL1        0.0366
     32 C          61.5600   83.9847    5.2397 C.3     1  UNL1        0.2525
     33 O          62.5323   84.8584    5.9755 O.3     1  UNL1       -0.4714
@<TRIPOS>BOND
     1    32    33    1
     2    33    26    1
     3    26    27   ar
     4    27    28   ar
     5    28    29   ar
     6    29    25    1
     7    25     1    1
     8     1     2   ar
     9     2    10    1
    10    10    11    1
    11    11    12    1
    12    12    13    1
    13    13    16    1
    14    16    18    1
    15    18    19    1
    16    19    20    1
    17    20    21    1
    18    21    22    1
    19    22    23    1
    20    23    24    1
    21    13    14    1
    22    14    15    1
    23     2     3   ar
    24     3     4   ar
    25     4     5   ar
    26     5     6   ar
    27     6     7   ar
    28     7     8   ar
    29     8     9   ar
    30    29    30   ar
    31    30    31   ar
    32    31    26   ar
    33     9     1   ar
    34    15    10    1
    35     9     4   ar
    36    24    19    1
    37    16    17    1
@<TRIPOS>MOLECULE
*****
 33 37 0 0 0
SMALL
GASTEIGER

@<TRIPOS>ATOM
      1 N          62.3951   87.9238   11.9307 N.ar    1  UNL1       -0.2954
      2 C          61.9211   87.1396   10.7431 C.ar    1  UNL1        0.2014
      3 N          62.4104   85.7297   10.8934 N.ar    1  UNL1       -0.2136
      4 C          63.1869   85.6425   12.1738 C.ar    1  UNL1        0.0999
      5 C          63.9013   84.5035   12.8388 C.ar    1  UNL1        0.0207
      6 C          64.6062   84.7205   14.1449 C.ar    1  UNL1        0.0016
      7 C          64.5967   86.0766   14.7860 C.ar    1  UNL1        0.0016
      8 C          63.8823   87.2156   14.1210 C.ar    1  UNL1        0.0188
      9 C          63.1774   86.9985   12.8149 C.ar    1  UNL1        0.0801
     10 N          61.1016   87.6719    9.6050 N.pl3   1  UNL1       -0.2794
     11 C          60.4013   86.7238    8.6773 C.3     1  UNL1        0.0949
     12 C          59.5818   87.2561    7.5393 C.3     1  UNL1        0.0373
     13 C          59.4627   88.7365    7.3289 C.3     1  UNL1        0.0574
     14 C          60.1630   89.6846    8.2567 C.3     1  UNL1        0.0373
     15 C          60.9824   89.1523    9.3947 C.3     1  UNL1        0.0949
     16 N          58.6432   89.2688    6.1909 N.3     1  UNL1       -0.2984
     17 H          57.6802   88.9786    6.3605 H       1  UNL1        0.1232
     18 C          58.6092   90.7430    5.9164 C.3     1  UNL1        0.0686
     19 C          59.5323   91.3371    4.8941 C.3     1  UNL1        0.0207
     20 C          60.9719   90.9177    4.8499 C.3     1  UNL1        0.0335
     21 C          61.8950   91.5117    3.8276 C.3     1  UNL1        0.1422
     22 O          61.3786   92.5251    2.8496 O.3     1  UNL1       -0.3538
     23 C          59.9391   92.9444    2.8939 C.3     1  UNL1        0.1422
     24 C          59.0160   92.3504    3.9162 C.3     1  UNL1        0.0335
     25 C          62.1328   89.3780   12.1887 C.3     1  UNL1        0.1354
     26 C          65.5116   92.3435   11.9911 C.ar    1  UNL1        0.1387
     27 C          64.6797   92.0722   10.7728 C.ar    1  UNL1        0.0366
     28 C          63.5534   91.0836   10.8387 C.ar    1  UNL1        0.0007
     29 C          63.2590   90.3664   12.1229 C.ar    1  UNL1        0.0007
     30 C          64.0911   90.6378   13.3411 C.ar    1  UNL1        0.0007
     31 C          65.2173   91.6263   13.2752 C.ar    1  UNL1        0.0366
     32 C          66.4768   94.6015   11.1424 C.3     1  UNL1        0.2525
     33 O          66.6379   93.3320   11.9252 O.3     1  UNL1       -0.4714
@<TRIPOS>BOND
     1    32    33    1
     2    33    26    1
     3    26    27   ar
     4    27    28   ar
     5    28    29   ar
     6    29    25    1
     7    25     1    1
     8     1     2   ar
     9     2    10    1
    10    10    11    1
    11    11    12    1
    12    12    13    1
    13    13    16    1
    14    16    18    1
    15    18    19    1
    16    19    20    1
    17    20    21    1
    18    21    22    1
    19    22    23    1
    20    23    24    1
    21    13    14    1
    22    14    15    1
    23     2     3   ar
    24     3     4   ar
    25     4     5   ar
    26     5     6   ar
    27     6     7   ar
    28     7     8   ar
    29     8     9   ar
    30    29    30   ar
    31    30    31   ar
    32    31    26   ar
    33     9     1   ar
    34    15    10    1
    35     9     4   ar
    36    24    19    1
    37    16    17    1
@<TRIPOS>MOLECULE
*****
 33 37 0 0 0
SMALL
GASTEIGER

@<TRIPOS>ATOM
      1 N          62.3020   87.1742   10.4495 N.ar    1  UNL1       -0.2954
      2 C          62.1039   88.5730   10.9536 C.ar    1  UNL1        0.2014
      3 N          60.9282   89.1633   10.2329 N.ar    1  UNL1       -0.2136
      4 C          60.3997   88.1293    9.2835 C.ar    1  UNL1        0.0999
      5 C          59.2550   88.1483    8.3143 C.ar    1  UNL1        0.0207
      6 C          58.9593   86.9380    7.4791 C.ar    1  UNL1        0.0016
      7 C          59.8083   85.7087    7.6129 C.ar    1  UNL1        0.0016
      8 C          60.9530   85.6897    8.5821 C.ar    1  UNL1        0.0188
      9 C          61.2487   86.8999    9.4173 C.ar    1  UNL1        0.0801
     10 N          62.9355   89.2608   11.9954 N.pl3   1  UNL1       -0.2794
     11 C          63.1497   90.7438   11.9253 C.3     1  UNL1        0.0949
     12 C          63.9813   91.4316   12.9671 C.3     1  UNL1        0.0373
     13 C          64.5988   90.6364   14.0790 C.3     1  UNL1        0.0574
     14 C          64.3846   89.1535   14.1491 C.3     1  UNL1        0.0373
     15 C          63.5530   88.4657   13.1073 C.3     1  UNL1        0.0949
     16 N          65.4304   91.3242   15.1208 N.3     1  UNL1       -0.2984
     17 H          65.6426   90.6277   15.8351 H       1  UNL1        0.1232
     18 C          66.7324   91.9637   14.7391 C.3     1  UNL1        0.0686
     19 C          66.8990   92.5714   13.3779 C.3     1  UNL1        0.0207
     20 C          67.6525   91.8309   12.3130 C.3     1  UNL1        0.0335
     21 C          67.8191   92.4387   10.9518 C.3     1  UNL1        0.1422
     22 O          67.2320   93.7869   10.6555 O.3     1  UNL1       -0.3538
     23 C          66.4785   94.5273   11.7204 C.3     1  UNL1        0.1422
     24 C          66.3120   93.9196   13.0816 C.3     1  UNL1        0.0335
     25 C          63.3664   86.2176   10.8988 C.3     1  UNL1        0.1354
     26 C          62.2956   82.7427   13.5499 C.ar    1  UNL1        0.1387
     27 C          62.5225   84.0998   14.1473 C.ar    1  UNL1        0.0366
     28 C          62.8794   85.2581   13.2636 C.ar    1  UNL1        0.0007
     29 C          63.0095   85.0593   11.7824 C.ar    1  UNL1        0.0007
     30 C          62.7825   83.7022   11.1851 C.ar    1  UNL1        0.0007
     31 C          62.4256   82.5440   12.0689 C.ar    1  UNL1        0.0366
     32 C          60.7533   80.7265   14.1035 C.3     1  UNL1        0.2525
     33 O          61.9386   81.5845   14.4337 O.3     1  UNL1       -0.4714
@<TRIPOS>BOND
     1    32    33    1
     2    33    26    1
     3    26    27   ar
     4    27    28   ar
     5    28    29   ar
     6    29    25    1
     7    25     1    1
     8     1     2   ar
     9     2    10    1
    10    10    11    1
    11    11    12    1
    12    12    13    1
    13    13    16    1
    14    16    18    1
    15    18    19    1
    16    19    20    1
    17    20    21    1
    18    21    22    1
    19    22    23    1
    20    23    24    1
    21    13    14    1
    22    14    15    1
    23     2     3   ar
    24     3     4   ar
    25     4     5   ar
    26     5     6   ar
    27     6     7   ar
    28     7     8   ar
    29     8     9   ar
    30    29    30   ar
    31    30    31   ar
    32    31    26   ar
    33     9     1   ar
    34    15    10    1
    35     9     4   ar
    36    24    19    1
    37    16    17    1
@<TRIPOS>MOLECULE
*****
 33 37 0 0 0
SMALL
GASTEIGER

@<TRIPOS>ATOM
      1 N          61.4351   93.0395   -0.0069 N.ar    1  UNL1       -0.2954
      2 C          61.8856   93.1591    1.4188 C.ar    1  UNL1        0.2014
      3 N          63.1520   93.9627    1.4388 N.ar    1  UNL1       -0.2136
      4 C          63.4842   94.3397    0.0255 C.ar    1  UNL1        0.0999
      5 C          64.6158   95.1289   -0.5633 C.ar    1  UNL1        0.0207
      6 C          64.6862   95.3474   -2.0456 C.ar    1  UNL1        0.0016
      7 C          63.6251   94.7769   -2.9391 C.ar    1  UNL1        0.0016
      8 C          62.4935   93.9877   -2.3504 C.ar    1  UNL1        0.0188
      9 C          62.4230   93.7692   -0.8681 C.ar    1  UNL1        0.0801
     10 N          61.1916   92.5773    2.6146 N.pl3   1  UNL1       -0.2794
     11 C          59.7723   92.9572    2.9164 C.3     1  UNL1        0.0949
     12 C          59.0782   92.3753    4.1122 C.3     1  UNL1        0.0373
     13 C          59.8035   91.4137    5.0061 C.3     1  UNL1        0.0574
     14 C          61.2229   91.0338    4.7042 C.3     1  UNL1        0.0373
     15 C          61.9169   91.6156    3.5084 C.3     1  UNL1        0.0949
     16 N          59.1095   90.8319    6.2018 N.3     1  UNL1       -0.2984
     17 H          58.1749   91.2395    6.2271 H       1  UNL1        0.1232
     18 C          58.9374   89.3465    6.3200 C.3     1  UNL1        0.0686
     19 C          59.5470   88.6104    7.4761 C.3     1  UNL1        0.0207
     20 C          60.1617   89.3743    8.6114 C.3     1  UNL1        0.0335
     21 C          60.7714   88.6382    9.7674 C.3     1  UNL1        0.1422
     22 O          60.7664   87.1383    9.7882 O.3     1  UNL1       -0.3538
     23 C          60.1517   86.3745    8.6530 C.3     1  UNL1        0.1422
     24 C          59.5420   87.1106    7.4969 C.3     1  UNL1        0.0335
     25 C          60.2114   92.3171   -0.4872 C.3     1  UNL1        0.1354
     26 C          56.4405   94.6124   -1.3601 C.ar    1  UNL1        0.1387
     27 C          56.4855   93.1301   -1.5858 C.ar    1  UNL1        0.0366
     28 C          57.7425   92.3651   -1.2949 C.ar    1  UNL1        0.0007
     29 C          58.9545   93.0822   -0.7782 C.ar    1  UNL1        0.0007
     30 C          58.9094   94.5644   -0.5525 C.ar    1  UNL1        0.0007
     31 C          57.6524   95.3295   -0.8435 C.ar    1  UNL1        0.0366
     32 C          55.1303   96.8556   -1.4011 C.3     1  UNL1        0.2525
     33 O          55.1835   95.3775   -1.6511 O.3     1  UNL1       -0.4714
@<TRIPOS>BOND
     1    32    33    1
     2    33    26    1
     3    26    27   ar
     4    27    28   ar
     5    28    29   ar
     6    29    25    1
     7    25     1    1
     8     1     2   ar
     9     2    10    1
    10    10    11    1
    11    11    12    1
    12    12    13    1
    13    13    16    1
    14    16    18    1
    15    18    19    1
    16    19    20    1
    17    20    21    1
    18    21    22    1
    19    22    23    1
    20    23    24    1
    21    13    14    1
    22    14    15    1
    23     2     3   ar
    24     3     4   ar
    25     4     5   ar
    26     5     6   ar
    27     6     7   ar
    28     7     8   ar
    29     8     9   ar
    30    29    30   ar
    31    30    31   ar
    32    31    26   ar
    33     9     1   ar
    34    15    10    1
    35     9     4   ar
    36    24    19    1
    37    16    17    1
@<TRIPOS>MOLECULE
*****
 33 37 0 0 0
SMALL
GASTEIGER

@<TRIPOS>ATOM
      1 N          63.2817   85.8413   13.3519 N.ar    1  UNL1       -0.2954
      2 C          63.2707   86.4245   14.7338 C.ar    1  UNL1        0.2014
      3 N          62.9000   85.3337   15.6943 N.ar    1  UNL1       -0.2136
      4 C          62.6818   84.0763   14.9061 C.ar    1  UNL1        0.0999
      5 C          62.2988   82.6862   15.3195 C.ar    1  UNL1        0.0207
      6 C          62.1517   81.6099   14.2852 C.ar    1  UNL1        0.0016
      7 C          62.3876   81.9236   12.8375 C.ar    1  UNL1        0.0016
      8 C          62.7706   83.3136   12.4240 C.ar    1  UNL1        0.0188
      9 C          62.9177   84.3900   13.4583 C.ar    1  UNL1        0.0801
     10 N          63.5768   87.8485   15.0922 N.pl3   1  UNL1       -0.2794
     11 C          64.3247   88.7206   14.1278 C.3     1  UNL1        0.0949
     12 C          64.6307   90.1446   14.4862 C.3     1  UNL1        0.0373
     13 C          64.1890   90.6966   15.8091 C.3     1  UNL1        0.0574
     14 C          63.4411   89.8245   16.7736 C.3     1  UNL1        0.0373
     15 C          63.1350   88.4005   16.4151 C.3     1  UNL1        0.0949
     16 N          64.4950   92.1206   16.1676 N.3     1  UNL1       -0.2984
     17 H          64.2776   92.2281   17.1583 H       1  UNL1        0.1232
     18 C          65.8786   92.6638   15.9665 C.3     1  UNL1        0.0686
     19 C          66.5260   92.5860   14.6156 C.3     1  UNL1        0.0207
     20 C          65.9073   93.2923   13.4457 C.3     1  UNL1        0.0335
     21 C          66.5547   93.2145   12.0948 C.3     1  UNL1        0.1422
     22 O          67.8206   92.4305   11.9138 O.3     1  UNL1       -0.3538
     23 C          68.4392   91.7243   13.0837 C.3     1  UNL1        0.1422
     24 C          67.7918   91.8021   14.4346 C.3     1  UNL1        0.0335
     25 C          63.6006   86.5796   12.0857 C.3     1  UNL1        0.1354
     26 C          60.3092   87.6265    9.2013 C.ar    1  UNL1        0.1387
     27 C          61.0412   86.3245    9.0634 C.ar    1  UNL1        0.0366
     28 C          62.1383   85.9756   10.0249 C.ar    1  UNL1        0.0007
     29 C          62.5035   86.9286   11.1243 C.ar    1  UNL1        0.0007
     30 C          61.7714   88.2306   11.2621 C.ar    1  UNL1        0.0007
     31 C          60.6743   88.5795   10.3006 C.ar    1  UNL1        0.0366
     32 C          58.5581   86.8989    7.4252 C.3     1  UNL1        0.2525
     33 O          59.2120   87.9755    8.2398 O.3     1  UNL1       -0.4714
@<TRIPOS>BOND
     1    32    33    1
     2    33    26    1
     3    26    27   ar
     4    27    28   ar
     5    28    29   ar
     6    29    25    1
     7    25     1    1
     8     1     2   ar
     9     2    10    1
    10    10    11    1
    11    11    12    1
    12    12    13    1
    13    13    16    1
    14    16    18    1
    15    18    19    1
    16    19    20    1
    17    20    21    1
    18    21    22    1
    19    22    23    1
    20    23    24    1
    21    13    14    1
    22    14    15    1
    23     2     3   ar
    24     3     4   ar
    25     4     5   ar
    26     5     6   ar
    27     6     7   ar
    28     7     8   ar
    29     8     9   ar
    30    29    30   ar
    31    30    31   ar
    32    31    26   ar
    33     9     1   ar
    34    15    10    1
    35     9     4   ar
    36    24    19    1
    37    16    17    1
