@<TRIPOS>MOLECULE
*****
 29 32 0 0 0
SMALL
GASTEIGER

@<TRIPOS>ATOM
      1 C          62.0746   93.5914   -2.6392 C.3     1  UNL1        0.0061
      2 C          61.0888   94.5886   -2.1063 C.3     1  UNL1        0.0373
      3 C          60.2079   95.8006   -2.0363 C.3     1  UNL1        0.0075
      4 C          59.3676   96.0477   -0.8185 C.3     1  UNL1        0.0219
      5 C          59.4084   95.0827    0.3292 C.3     1  UNL1        0.0950
      6 N          60.2894   93.8708    0.2592 N.am    1  UNL1       -0.2637
      7 C          60.3302   92.9058    1.4070 C.2     1  UNL1        0.3077
      8 O          61.2112   91.6939    1.3368 O.2     1  UNL1       -0.2522
      9 N          59.4899   93.1530    2.6247 N.am    1  UNL1       -0.2681
     10 C          61.1296   93.6237   -0.9585 C.3     1  UNL1        0.0989
     11 H          58.9117   93.9484    2.6707 H       1  UNL1        0.1564
     12 C          61.3904   95.2072   -3.4392 C.ar    1  UNL1       -0.0212
     13 C          60.6073   94.7969   -4.6509 C.ar    1  UNL1       -0.0042
     14 C          60.9089   95.4155   -5.9836 C.ar    1  UNL1       -0.0003
     15 C          61.9937   96.4444   -6.1047 C.ar    1  UNL1       -0.0000
     16 C          62.7768   96.8547   -4.8930 C.ar    1  UNL1       -0.0003
     17 C          62.4752   96.2361   -3.5602 C.ar    1  UNL1       -0.0042
     18 C          59.5307   92.1880    3.7724 C.ar    1  UNL1        0.0516
     19 C          58.2581   91.7753    4.4508 C.ar    1  UNL1        0.0147
     20 C          58.2988   90.8104    5.5984 C.ar    1  UNL1        0.0013
     21 C          59.6122   90.2581    6.0678 C.ar    1  UNL1        0.0001
     22 C          60.8848   90.6708    5.3894 C.ar    1  UNL1        0.0013
     23 C          60.8440   91.6358    4.2417 C.ar    1  UNL1        0.0147
     24 C          59.6529   89.2931    7.2155 C.ar    1  UNL1        0.0000
     25 C          59.1101   87.9049    7.0478 C.ar    1  UNL1        0.0000
     26 C          59.1508   86.9399    8.1954 C.ar    1  UNL1        0.0000
     27 C          59.7344   87.3632    9.5109 C.ar    1  UNL1        0.0000
     28 C          60.2773   88.7515    9.6786 C.ar    1  UNL1        0.0000
     29 C          60.2365   89.7164    8.5309 C.ar    1  UNL1        0.0000
@<TRIPOS>BOND
     1     1     2    1
     2     2    12    1
     3    12    13   ar
     4    13    14   ar
     5    14    15   ar
     6    15    16   ar
     7    16    17   ar
     8     2     3    1
     9     3     4    1
    10     4     5    1
    11     5     6    1
    12     6     7   am
    13     7     8    2
    14     7     9   am
    15     9    18    1
    16    18    19   ar
    17    19    20   ar
    18    20    21   ar
    19    21    24    1
    20    24    25   ar
    21    25    26   ar
    22    26    27   ar
    23    27    28   ar
    24    28    29   ar
    25    21    22   ar
    26    22    23   ar
    27     6    10    1
    28    10     2    1
    29    17    12   ar
    30    23    18   ar
    31    29    24   ar
    32     9    11    1
@<TRIPOS>MOLECULE
*****
 29 32 0 0 0
SMALL
GASTEIGER

@<TRIPOS>ATOM
      1 C          62.5501   83.6039   12.2218 C.3     1  UNL1        0.0061
      2 C          62.8746   83.8554   13.6646 C.3     1  UNL1        0.0373
      3 C          63.0519   83.6078   15.1333 C.3     1  UNL1        0.0075
      4 C          63.5404   84.7098   16.0261 C.3     1  UNL1        0.0219
      5 C          63.8516   86.0594   15.4500 C.3     1  UNL1        0.0950
      6 N          63.6743   86.3070   13.9813 N.am    1  UNL1       -0.2637
      7 C          63.9855   87.6566   13.4053 C.2     1  UNL1        0.3077
      8 O          63.8082   87.9041   11.9365 O.2     1  UNL1       -0.2522
      9 N          64.4739   88.7586   14.2980 N.am    1  UNL1       -0.2681
     10 C          63.1858   85.2050   13.0885 C.3     1  UNL1        0.0989
     11 H          64.5903   88.5961   15.2620 H       1  UNL1        0.1564
     12 C          62.4508   82.4184   13.7395 C.ar    1  UNL1       -0.0212
     13 C          61.1025   82.0620   14.2920 C.ar    1  UNL1       -0.0042
     14 C          60.6787   80.6251   14.3669 C.ar    1  UNL1       -0.0003
     15 C          61.6031   79.5446   13.8893 C.ar    1  UNL1       -0.0000
     16 C          62.9513   79.9010   13.3369 C.ar    1  UNL1       -0.0003
     17 C          63.3751   81.3379   13.2620 C.ar    1  UNL1       -0.0042
     18 C          64.7851   90.1081   13.7219 C.ar    1  UNL1        0.0516
     19 C          65.9539   90.8931   14.2395 C.ar    1  UNL1        0.0147
     20 C          66.2651   92.2426   13.6635 C.ar    1  UNL1        0.0013
     21 C          65.4076   92.8072   12.5699 C.ar    1  UNL1        0.0001
     22 C          64.2388   92.0223   12.0523 C.ar    1  UNL1        0.0013
     23 C          63.9276   90.6727   12.6284 C.ar    1  UNL1        0.0147
     24 C          65.7188   94.1568   11.9938 C.ar    1  UNL1        0.0000
     25 C          66.2515   95.2450   12.8782 C.ar    1  UNL1        0.0000
     26 C          66.5628   96.5945   12.3022 C.ar    1  UNL1        0.0000
     27 C          66.3412   96.8560   10.8418 C.ar    1  UNL1        0.0000
     28 C          65.8084   95.7677    9.9574 C.ar    1  UNL1        0.0000
     29 C          65.4972   94.4182   10.5335 C.ar    1  UNL1        0.0000
@<TRIPOS>BOND
     1     1     2    1
     2     2    12    1
     3    12    13   ar
     4    13    14   ar
     5    14    15   ar
     6    15    16   ar
     7    16    17   ar
     8     2     3    1
     9     3     4    1
    10     4     5    1
    11     5     6    1
    12     6     7   am
    13     7     8    2
    14     7     9   am
    15     9    18    1
    16    18    19   ar
    17    19    20   ar
    18    20    21   ar
    19    21    24    1
    20    24    25   ar
    21    25    26   ar
    22    26    27   ar
    23    27    28   ar
    24    28    29   ar
    25    21    22   ar
    26    22    23   ar
    27     6    10    1
    28    10     2    1
    29    17    12   ar
    30    23    18   ar
    31    29    24   ar
    32     9    11    1
@<TRIPOS>MOLECULE
*****
 29 32 0 0 0
SMALL
GASTEIGER

@<TRIPOS>ATOM
      1 C          64.6266   92.3225   10.9287 C.3     1  UNL1        0.0061
      2 C          65.1628   92.2886   12.3292 C.3     1  UNL1        0.0373
      3 C          65.8245   92.7425   13.5965 C.3     1  UNL1        0.0075
      4 C          65.9385   91.8037   14.7608 C.3     1  UNL1        0.0219
      5 C          65.3909   90.4110   14.6578 C.3     1  UNL1        0.0950
      6 N          64.7292   89.9572   13.3905 N.am    1  UNL1       -0.2637
      7 C          64.1815   88.5645   13.2875 C.2     1  UNL1        0.3077
      8 O          63.5198   88.1107   12.0201 O.2     1  UNL1       -0.2522
      9 N          64.2956   87.6257   14.4518 N.am    1  UNL1       -0.2681
     10 C          64.6151   90.8959   12.2262 C.3     1  UNL1        0.0989
     11 H          64.7299   87.9236   15.2836 H       1  UNL1        0.1564
     12 C          65.5242   93.6931   11.9458 C.ar    1  UNL1       -0.0212
     13 C          65.2316   94.1915   10.5616 C.ar    1  UNL1       -0.0042
     14 C          65.5931   95.5959   10.1783 C.ar    1  UNL1       -0.0003
     15 C          66.2471   96.5019   11.1791 C.ar    1  UNL1       -0.0000
     16 C          66.5397   96.0034   12.5632 C.ar    1  UNL1       -0.0003
     17 C          66.1782   94.5990   12.9465 C.ar    1  UNL1       -0.0042
     18 C          63.7479   86.2331   14.3488 C.ar    1  UNL1        0.0516
     19 C          63.5051   85.6206   13.0011 C.ar    1  UNL1        0.0147
     20 C          62.9574   84.2281   12.8980 C.ar    1  UNL1        0.0013
     21 C          62.6526   83.4479   14.1424 C.ar    1  UNL1        0.0001
     22 C          62.8954   84.0604   15.4899 C.ar    1  UNL1        0.0013
     23 C          63.4431   85.4530   15.5931 C.ar    1  UNL1        0.0147
     24 C          62.1049   82.0552   14.0392 C.ar    1  UNL1        0.0000
     25 C          60.6594   81.7934   14.3424 C.ar    1  UNL1        0.0000
     26 C          60.1117   80.4009   14.2393 C.ar    1  UNL1        0.0000
     27 C          61.0095   79.2700   13.8329 C.ar    1  UNL1        0.0000
     28 C          62.4551   79.5318   13.5297 C.ar    1  UNL1        0.0000
     29 C          63.0027   80.9244   13.6329 C.ar    1  UNL1        0.0000
@<TRIPOS>BOND
     1     1     2    1
     2     2    12    1
     3    12    13   ar
     4    13    14   ar
     5    14    15   ar
     6    15    16   ar
     7    16    17   ar
     8     2     3    1
     9     3     4    1
    10     4     5    1
    11     5     6    1
    12     6     7   am
    13     7     8    2
    14     7     9   am
    15     9    18    1
    16    18    19   ar
    17    19    20   ar
    18    20    21   ar
    19    21    24    1
    20    24    25   ar
    21    25    26   ar
    22    26    27   ar
    23    27    28   ar
    24    28    29   ar
    25    21    22   ar
    26    22    23   ar
    27     6    10    1
    28    10     2    1
    29    17    12   ar
    30    23    18   ar
    31    29    24   ar
    32     9    11    1
