@<TRIPOS>MOLECULE
*****
 41 46 0 0 0
SMALL
GASTEIGER

@<TRIPOS>ATOM
      1 C          62.5213   86.0678   11.1260 C.3     1  UNL1        0.0048
      2 C          63.1784   86.2250   12.4652 C.3     1  UNL1        0.0324
      3 C          62.9629   84.8559   11.8915 C.3     1  UNL1        0.0528
      4 C          63.4046   83.6438   12.6571 C.3     1  UNL1        0.1948
      5 O          64.0618   83.8010   13.9963 O.3     1  UNL1       -0.4447
      6 C          64.2773   85.1702   14.5699 C.2     1  UNL1        0.3370
      7 O          64.9344   85.3273   15.9091 O.2     1  UNL1       -0.2453
      8 C          63.8356   86.3821   13.8044 C.2     1  UNL1        0.0488
      9 C          64.0511   87.7513   14.3780 C.2     1  UNL1       -0.0239
     10 C          63.6094   88.9632   13.6125 C.3     1  UNL1        0.0292
     11 C          62.9523   88.8061   12.2733 C.3     1  UNL1        0.0445
     12 C          63.1678   90.1751   12.8470 C.3     1  UNL1        0.0037
     13 C          62.7368   87.4370   11.6997 C.3     1  UNL1        0.0519
     14 C          62.0796   87.2798   10.3605 C.3     1  UNL1        0.1910
     15 C          61.6379   88.4918    9.5949 C.2     1  UNL1        0.0149
     16 C          61.8534   89.8608   10.1686 C.2     1  UNL1        0.0100
     17 C          62.5106   90.0180   11.5078 C.3     1  UNL1        0.2021
     18 C          62.6456   88.7327   11.6483 C.2     1  UNL1        0.3458
     19 O          62.9638   88.9372   12.3099 O.2     1  UNL1       -0.2471
     20 O          62.5307   88.0026   11.3424 O.3     1  UNL1       -0.4459
     21 C          63.1891   82.2748   12.0834 C.ar    1  UNL1        0.0580
     22 C          63.3845   81.8786   10.6499 C.ar    1  UNL1        0.0430
     23 C          63.0566   80.4205   10.5231 C.ar    1  UNL1        0.1795
     24 O          62.6584   79.9154   11.8783 O.2     1  UNL1       -0.4475
     25 C          62.7403   81.0614   12.8426 C.ar    1  UNL1        0.1789
     26 O          62.7261   91.3872   12.0814 O.3     1  UNL1       -0.3184
     27 C          64.0872   91.7923   12.5643 C.3     1  UNL1        0.2663
     28 O          64.3672   91.8749   14.0356 O.3     1  UNL1       -0.3260
     29 C          65.7284   92.2801   14.5184 C.3     1  UNL1        0.1761
     30 C          66.8095   92.6027   13.5299 C.3     1  UNL1        0.1694
     31 O          68.1706   93.0079   14.0128 O.3     1  UNL1       -0.3794
     32 C          66.5295   92.5202   12.0586 C.3     1  UNL1        0.1715
     33 O          67.6106   92.8428   11.0701 O.3     1  UNL1       -0.3794
     34 C          65.1684   92.1150   11.5758 C.3     1  UNL1        0.1964
     35 O          64.8884   92.0325   10.1044 O.3     1  UNL1       -0.3775
     36 H          68.1820   93.0107   14.9827 H       1  UNL1        0.2105
     37 H          67.2659   92.7407   10.1692 H       1  UNL1        0.2105
     38 H          63.9683   91.7585    9.9653 H       1  UNL1        0.2106
     39 C          66.0084   92.3626   15.9897 C.3     1  UNL1        0.1693
     40 O          64.9244   92.7840   16.9370 O.3     1  UNL1       -0.3794
     41 H          64.6860   93.7084   16.7650 H       1  UNL1        0.2105
@<TRIPOS>BOND
     1     2     1    1
     2     2     3    1
     3     3     4    1
     4     4    21    1
     5    21    22   ar
     6    22    23   ar
     7    23    24   ar
     8    24    25   ar
     9     4     5    1
    10     5     6    1
    11     6     7    2
    12     6     8    1
    13     8     9    2
    14     9    10    1
    15    10    11    1
    16    11    12    1
    17    11    13    1
    18    13    14    1
    19    14    15    1
    20    15    16    2
    21    16    17    1
    22    17    26    1
    23    27    26    1
    24    27    28    1
    25    28    29    1
    26    29    39    1
    27    39    40    1
    28    29    30    1
    29    30    31    1
    30    30    32    1
    31    32    33    1
    32    32    34    1
    33    34    35    1
    34    17    18    1
    35    18    19    2
    36    18    20    1
    37     8     2    1
    38    17    11    1
    39    34    27    1
    40    13     2    1
    41    14    20    1
    42    25    21   ar
    43    40    41    1
    44    31    36    1
    45    33    37    1
    46    35    38    1
@<TRIPOS>MOLECULE
*****
 41 46 0 0 0
SMALL
GASTEIGER

@<TRIPOS>ATOM
      1 C          63.6842   91.5381   10.4277 C.3     1  UNL1        0.0048
      2 C          64.2628   91.1442   11.7543 C.3     1  UNL1        0.0324
      3 C          64.7248   92.4008   11.0780 C.3     1  UNL1        0.0528
      4 C          65.7653   93.2636   11.7283 C.3     1  UNL1        0.1948
      5 O          66.3440   92.8697   13.0550 O.3     1  UNL1       -0.4447
      6 C          65.8820   91.6130   13.7313 C.2     1  UNL1        0.3370
      7 O          66.4606   91.2192   15.0580 O.2     1  UNL1       -0.2453
      8 C          64.8415   90.7503   13.0810 C.2     1  UNL1        0.0488
      9 C          64.3795   89.4936   13.7574 C.2     1  UNL1       -0.0239
     10 C          63.3389   88.6309   13.1071 C.3     1  UNL1        0.0292
     11 C          62.7603   89.0248   11.7804 C.3     1  UNL1        0.0445
     12 C          62.2984   87.7682   12.4568 C.3     1  UNL1        0.0037
     13 C          63.2222   90.2814   11.1040 C.3     1  UNL1        0.0519
     14 C          62.6436   90.6753    9.7774 C.3     1  UNL1        0.1910
     15 C          61.6031   89.8126    9.1270 C.2     1  UNL1        0.0149
     16 C          61.1412   88.5560    9.8034 C.2     1  UNL1        0.0100
     17 C          61.7198   88.1621   11.1301 C.3     1  UNL1        0.2021
     18 C          62.4903   89.2086   11.1613 C.2     1  UNL1        0.3458
     19 O          62.7070   88.9080   11.8272 O.2     1  UNL1       -0.2471
     20 O          62.7367   89.8788   10.8006 O.3     1  UNL1       -0.4459
     21 C          66.2273   94.5202   11.0519 C.ar    1  UNL1        0.0580
     22 C          66.8658   94.6090    9.6975 C.ar    1  UNL1        0.0430
     23 C          67.1649   96.0523    9.4197 C.ar    1  UNL1        0.1795
     24 O          66.7113   96.8557   10.6025 O.2     1  UNL1       -0.4475
     25 C          66.1318   95.9088   11.6112 C.ar    1  UNL1        0.1789
     26 O          61.2578   86.9054   11.8064 O.3     1  UNL1       -0.3184
     27 C          62.1782   85.7251   11.9055 C.3     1  UNL1        0.2663
     28 O          62.5854   85.2024   13.2512 O.3     1  UNL1       -0.3260
     29 C          63.5058   84.0221   13.3502 C.3     1  UNL1        0.1761
     30 C          64.0190   83.3645   12.1035 C.3     1  UNL1        0.1694
     31 O          64.9394   82.1843   12.2026 O.3     1  UNL1       -0.3794
     32 C          63.6118   83.8872   10.7578 C.3     1  UNL1        0.1715
     33 O          64.1249   83.2297    9.5111 O.3     1  UNL1       -0.3794
     34 C          62.6914   85.0675   10.6588 C.3     1  UNL1        0.1964
     35 O          62.2842   85.5902    9.3131 O.3     1  UNL1       -0.3775
     36 H          65.1004   81.9773   13.1365 H       1  UNL1        0.2105
     37 H          63.7682   83.6874    8.7339 H       1  UNL1        0.2105
     38 H          61.6918   86.3498    9.4270 H       1  UNL1        0.2106
     39 C          63.9131   83.4994   14.6959 C.3     1  UNL1        0.1693
     40 O          62.9344   82.7233   15.5266 O.3     1  UNL1       -0.3794
     41 H          62.2039   83.3037   15.7921 H       1  UNL1        0.2105
@<TRIPOS>BOND
     1     2     1    1
     2     2     3    1
     3     3     4    1
     4     4    21    1
     5    21    22   ar
     6    22    23   ar
     7    23    24   ar
     8    24    25   ar
     9     4     5    1
    10     5     6    1
    11     6     7    2
    12     6     8    1
    13     8     9    2
    14     9    10    1
    15    10    11    1
    16    11    12    1
    17    11    13    1
    18    13    14    1
    19    14    15    1
    20    15    16    2
    21    16    17    1
    22    17    26    1
    23    27    26    1
    24    27    28    1
    25    28    29    1
    26    29    39    1
    27    39    40    1
    28    29    30    1
    29    30    31    1
    30    30    32    1
    31    32    33    1
    32    32    34    1
    33    34    35    1
    34    17    18    1
    35    18    19    2
    36    18    20    1
    37     8     2    1
    38    17    11    1
    39    34    27    1
    40    13     2    1
    41    14    20    1
    42    25    21   ar
    43    40    41    1
    44    31    36    1
    45    33    37    1
    46    35    38    1
@<TRIPOS>MOLECULE
*****
 41 46 0 0 0
SMALL
GASTEIGER

@<TRIPOS>ATOM
      1 C          62.4183   85.6694   10.9347 C.3     1  UNL1        0.0048
      2 C          63.1032   85.8183   12.2609 C.3     1  UNL1        0.0324
      3 C          62.8888   84.4535   11.6766 C.3     1  UNL1        0.0528
      4 C          63.3594   83.2376   12.4184 C.3     1  UNL1        0.1948
      5 O          64.0443   83.3865   13.7446 O.3     1  UNL1       -0.4447
      6 C          64.2586   84.7514   14.3289 C.2     1  UNL1        0.3370
      7 O          64.9435   84.9003   15.6551 O.2     1  UNL1       -0.2453
      8 C          63.7881   85.9672   13.5871 C.2     1  UNL1        0.0488
      9 C          64.0025   87.3320   14.1714 C.2     1  UNL1       -0.0239
     10 C          63.5320   88.5478   13.4296 C.3     1  UNL1        0.0292
     11 C          62.8471   88.3989   12.1034 C.3     1  UNL1        0.0445
     12 C          63.0615   89.7636   12.6877 C.3     1  UNL1        0.0037
     13 C          62.6327   87.0342   11.5191 C.3     1  UNL1        0.0519
     14 C          61.9478   86.8853   10.1929 C.3     1  UNL1        0.1910
     15 C          61.4773   88.1011    9.4510 C.2     1  UNL1        0.0149
     16 C          61.6917   89.4658   10.0354 C.2     1  UNL1        0.0100
     17 C          62.3766   89.6147   11.3616 C.3     1  UNL1        0.2021
     18 C          62.5275   88.3294   11.4845 C.2     1  UNL1        0.3458
     19 O          62.8581   88.5298   12.1413 O.2     1  UNL1       -0.2471
     20 O          62.4131   87.6016   11.1729 O.3     1  UNL1       -0.4459
     21 C          63.1450   81.8729   11.8341 C.ar    1  UNL1        0.0580
     22 C          63.2965   81.4986   10.3894 C.ar    1  UNL1        0.0430
     23 C          62.9866   80.0372   10.2542 C.ar    1  UNL1        0.1795
     24 O          62.6436   79.5083   11.6154 O.2     1  UNL1       -0.4475
     25 C          62.7415   80.6428   12.5917 C.ar    1  UNL1        0.1789
     26 O          62.5910   90.9796   11.9459 O.3     1  UNL1       -0.3184
     27 C          63.9768   91.4390   12.2897 C.3     1  UNL1        0.2663
     28 O          64.9650   91.7239   11.1978 O.3     1  UNL1       -0.3260
     29 C          66.3510   92.1834   11.5418 C.3     1  UNL1        0.1761
     30 C          66.7486   92.3578   12.9775 C.3     1  UNL1        0.1694
     31 O          68.1345   92.8172   13.3213 O.3     1  UNL1       -0.3794
     32 C          65.7604   92.0729   14.0694 C.3     1  UNL1        0.1715
     33 O          66.1581   92.2473   15.5051 O.3     1  UNL1       -0.3794
     34 C          64.3745   91.6134   13.7255 C.3     1  UNL1        0.1964
     35 O          63.3863   91.3285   14.8174 O.3     1  UNL1       -0.3775
     36 H          68.6411   92.9551   12.5057 H       1  UNL1        0.2105
     37 H          65.4081   92.0229   16.0779 H       1  UNL1        0.2105
     38 H          62.5455   91.0439   14.4264 H       1  UNL1        0.2106
     39 C          67.3392   92.4683   10.4499 C.3     1  UNL1        0.1693
     40 O          68.8080   92.3029   10.7057 O.3     1  UNL1       -0.3794
     41 H          69.0976   92.9565   11.3614 H       1  UNL1        0.2105
@<TRIPOS>BOND
     1     2     1    1
     2     2     3    1
     3     3     4    1
     4     4    21    1
     5    21    22   ar
     6    22    23   ar
     7    23    24   ar
     8    24    25   ar
     9     4     5    1
    10     5     6    1
    11     6     7    2
    12     6     8    1
    13     8     9    2
    14     9    10    1
    15    10    11    1
    16    11    12    1
    17    11    13    1
    18    13    14    1
    19    14    15    1
    20    15    16    2
    21    16    17    1
    22    17    26    1
    23    27    26    1
    24    27    28    1
    25    28    29    1
    26    29    39    1
    27    39    40    1
    28    29    30    1
    29    30    31    1
    30    30    32    1
    31    32    33    1
    32    32    34    1
    33    34    35    1
    34    17    18    1
    35    18    19    2
    36    18    20    1
    37     8     2    1
    38    17    11    1
    39    34    27    1
    40    13     2    1
    41    14    20    1
    42    25    21   ar
    43    40    41    1
    44    31    36    1
    45    33    37    1
    46    35    38    1
@<TRIPOS>MOLECULE
*****
 41 46 0 0 0
SMALL
GASTEIGER

@<TRIPOS>ATOM
      1 C          63.9046   87.9608   13.6530 C.3     1  UNL1        0.0048
      2 C          63.2319   88.1849   12.3312 C.3     1  UNL1        0.0324
      3 C          63.2153   86.8231   12.9599 C.3     1  UNL1        0.0528
      4 C          62.5259   85.6853   12.2668 C.3     1  UNL1        0.1948
      5 O          61.8532   85.9094   10.9450 O.3     1  UNL1       -0.4447
      6 C          61.8699   87.2712   10.3162 C.2     1  UNL1        0.3370
      7 O          61.1971   87.4952    8.9944 O.2     1  UNL1       -0.2453
      8 C          62.5592   88.4089   11.0093 C.2     1  UNL1        0.0488
      9 C          62.5758   89.7707   10.3806 C.2     1  UNL1       -0.0239
     10 C          63.2651   90.9084   11.0737 C.3     1  UNL1        0.0292
     11 C          63.9379   90.6844   12.3955 C.3     1  UNL1        0.0445
     12 C          63.9545   92.0461   11.7668 C.3     1  UNL1        0.0037
     13 C          63.9212   89.3226   13.0243 C.3     1  UNL1        0.0519
     14 C          64.5940   89.0986   14.3461 C.3     1  UNL1        0.1910
     15 C          65.2833   90.2363   15.0392 C.2     1  UNL1        0.0149
     16 C          65.2999   91.5980   14.4105 C.2     1  UNL1        0.0100
     17 C          64.6272   91.8221   13.0886 C.3     1  UNL1        0.2021
     18 C          64.2518   90.5798   13.0124 C.2     1  UNL1        0.3458
     19 O          63.9492   90.8139   12.3533 O.2     1  UNL1       -0.2471
     20 O          64.2429   89.8536   13.3477 O.3     1  UNL1       -0.4459
     21 C          62.5093   84.3236   12.8955 C.ar    1  UNL1        0.0580
     22 C          62.6047   83.0153   12.1680 C.ar    1  UNL1        0.0430
     23 C          62.5488   81.9142   13.1850 C.ar    1  UNL1        0.1795
     24 O          62.4188   82.5420   14.5412 O.2     1  UNL1       -0.4475
     25 C          62.3945   84.0311   14.3622 C.ar    1  UNL1        0.1789
     26 O          64.6438   93.1839   12.4599 O.3     1  UNL1       -0.3184
     27 C          65.7061   93.5360   11.4612 C.3     1  UNL1        0.2663
     28 O          66.5205   92.4523   10.8190 O.3     1  UNL1       -0.3260
     29 C          67.5829   92.8044    9.8202 C.3     1  UNL1        0.1761
     30 C          67.8308   94.2401    9.4637 C.3     1  UNL1        0.1694
     31 O          68.8931   94.5922    8.4650 O.3     1  UNL1       -0.3794
     32 C          67.0164   95.3238   10.1059 C.3     1  UNL1        0.1715
     33 O          67.2643   96.7595    9.7493 O.3     1  UNL1       -0.3794
     34 C          65.9541   94.9718   11.1046 C.3     1  UNL1        0.1964
     35 O          65.1397   96.0554   11.7468 O.3     1  UNL1       -0.3775
     36 H          69.3215   93.7812    8.1491 H       1  UNL1        0.2105
     37 H          66.6572   97.3265   10.2501 H       1  UNL1        0.2105
     38 H          64.5029   95.6597   12.3623 H       1  UNL1        0.2106
     39 C          68.3973   91.7207    9.1780 C.3     1  UNL1        0.1693
     40 O          69.0632   91.9662    7.8565 O.3     1  UNL1       -0.3794
     41 H          68.3873   92.0888    7.1716 H       1  UNL1        0.2105
@<TRIPOS>BOND
     1     2     1    1
     2     2     3    1
     3     3     4    1
     4     4    21    1
     5    21    22   ar
     6    22    23   ar
     7    23    24   ar
     8    24    25   ar
     9     4     5    1
    10     5     6    1
    11     6     7    2
    12     6     8    1
    13     8     9    2
    14     9    10    1
    15    10    11    1
    16    11    12    1
    17    11    13    1
    18    13    14    1
    19    14    15    1
    20    15    16    2
    21    16    17    1
    22    17    26    1
    23    27    26    1
    24    27    28    1
    25    28    29    1
    26    29    39    1
    27    39    40    1
    28    29    30    1
    29    30    31    1
    30    30    32    1
    31    32    33    1
    32    32    34    1
    33    34    35    1
    34    17    18    1
    35    18    19    2
    36    18    20    1
    37     8     2    1
    38    17    11    1
    39    34    27    1
    40    13     2    1
    41    14    20    1
    42    25    21   ar
    43    40    41    1
    44    31    36    1
    45    33    37    1
    46    35    38    1
@<TRIPOS>MOLECULE
*****
 41 46 0 0 0
SMALL
GASTEIGER

@<TRIPOS>ATOM
      1 C          63.8809   91.4158   10.5339 C.3     1  UNL1        0.0048
      2 C          64.4994   91.3207   11.8972 C.3     1  UNL1        0.0324
      3 C          64.8313   92.4776   11.0020 C.3     1  UNL1        0.0528
      4 C          65.7818   93.5396   11.4701 C.3     1  UNL1        0.1948
      5 O          66.4003   93.4445   12.8333 O.3     1  UNL1       -0.4447
      6 C          66.0684   92.2875   13.7284 C.2     1  UNL1        0.3370
      7 O          66.6869   92.1924   15.0917 O.2     1  UNL1       -0.2453
      8 C          65.1180   91.2256   13.2604 C.2     1  UNL1        0.0488
      9 C          64.7860   90.0686   14.1555 C.2     1  UNL1       -0.0239
     10 C          63.8356   89.0068   13.6875 C.3     1  UNL1        0.0292
     11 C          63.2171   89.1019   12.3243 C.3     1  UNL1        0.0445
     12 C          62.8852   87.9449   13.2194 C.3     1  UNL1        0.0037
     13 C          63.5490   90.2588   11.4291 C.3     1  UNL1        0.0519
     14 C          62.9304   90.3539   10.0659 C.3     1  UNL1        0.1910
     15 C          61.9800   89.2920    9.5978 C.2     1  UNL1        0.0149
     16 C          61.6481   88.1351   10.4930 C.2     1  UNL1        0.0100
     17 C          62.2667   88.0400   11.8562 C.3     1  UNL1        0.2021
     18 C          62.9284   89.1462   11.6881 C.2     1  UNL1        0.3458
     19 O          63.1758   88.9905   12.3919 O.2     1  UNL1       -0.2471
     20 O          63.1054   89.7633   11.2107 O.3     1  UNL1       -0.4459
     21 C          66.1136   94.6965   10.5749 C.ar    1  UNL1        0.0580
     22 C          65.3571   95.9888   10.4871 C.ar    1  UNL1        0.0430
     23 C          66.0362   96.8552    9.4683 C.ar    1  UNL1        0.1795
     24 O          67.2125   96.0984    8.9264 O.2     1  UNL1       -0.4475
     25 C          67.2603   94.7643    9.6103 C.ar    1  UNL1        0.1789
     26 O          61.9347   86.8830   12.7514 O.3     1  UNL1       -0.3184
     27 C          62.7632   85.6336   12.7005 C.3     1  UNL1        0.2663
     28 O          62.9151   84.8865   11.4087 O.3     1  UNL1       -0.3260
     29 C          63.7436   83.6371   11.3578 C.3     1  UNL1        0.1761
     30 C          64.4201   83.1347   12.5987 C.3     1  UNL1        0.1694
     31 O          65.2485   81.8853   12.5479 O.3     1  UNL1       -0.3794
     32 C          64.2682   83.8818   13.8906 C.3     1  UNL1        0.1715
     33 O          64.9447   83.3795   15.1315 O.3     1  UNL1       -0.3794
     34 C          63.4398   85.1312   13.9414 C.3     1  UNL1        0.1964
     35 O          63.2878   85.8783   15.2333 O.3     1  UNL1       -0.3775
     36 H          65.2424   81.5299   11.6454 H       1  UNL1        0.2105
     37 H          64.7454   83.9740   15.8716 H       1  UNL1        0.2105
     38 H          62.7253   86.6560   15.0928 H       1  UNL1        0.2106
     39 C          63.8955   82.8900   10.0660 C.3     1  UNL1        0.1693
     40 O          63.6642   81.4084   10.0247 O.3     1  UNL1       -0.3794
     41 H          64.3437   80.9603   10.5523 H       1  UNL1        0.2105
@<TRIPOS>BOND
     1     2     1    1
     2     2     3    1
     3     3     4    1
     4     4    21    1
     5    21    22   ar
     6    22    23   ar
     7    23    24   ar
     8    24    25   ar
     9     4     5    1
    10     5     6    1
    11     6     7    2
    12     6     8    1
    13     8     9    2
    14     9    10    1
    15    10    11    1
    16    11    12    1
    17    11    13    1
    18    13    14    1
    19    14    15    1
    20    15    16    2
    21    16    17    1
    22    17    26    1
    23    27    26    1
    24    27    28    1
    25    28    29    1
    26    29    39    1
    27    39    40    1
    28    29    30    1
    29    30    31    1
    30    30    32    1
    31    32    33    1
    32    32    34    1
    33    34    35    1
    34    17    18    1
    35    18    19    2
    36    18    20    1
    37     8     2    1
    38    17    11    1
    39    34    27    1
    40    13     2    1
    41    14    20    1
    42    25    21   ar
    43    40    41    1
    44    31    36    1
    45    33    37    1
    46    35    38    1
@<TRIPOS>MOLECULE
*****
 41 46 0 0 0
SMALL
GASTEIGER

@<TRIPOS>ATOM
      1 C          63.5938   86.7417   13.6843 C.3     1  UNL1        0.0048
      2 C          63.0451   86.9812   12.3089 C.3     1  UNL1        0.0324
      3 C          63.0843   85.5903   12.8691 C.3     1  UNL1        0.0528
      4 C          62.5749   84.4387   12.0539 C.3     1  UNL1        0.1948
      5 O          62.0262   84.6782   10.6786 O.3     1  UNL1       -0.4447
      6 C          61.9870   86.0691   10.1184 C.2     1  UNL1        0.3370
      7 O          61.4383   86.3086    8.7430 O.2     1  UNL1       -0.2453
      8 C          62.4964   87.2206   10.9336 C.2     1  UNL1        0.0488
      9 C          62.4572   88.6116   10.3734 C.2     1  UNL1       -0.0239
     10 C          62.9666   89.7630   11.1886 C.3     1  UNL1        0.0292
     11 C          63.5153   89.5236   12.5639 C.3     1  UNL1        0.0445
     12 C          63.4761   90.9145   12.0038 C.3     1  UNL1        0.0037
     13 C          63.5546   88.1327   13.1241 C.3     1  UNL1        0.0519
     14 C          64.1032   87.8933   14.4995 C.3     1  UNL1        0.1910
     15 C          64.6127   89.0447   15.3147 C.2     1  UNL1        0.0149
     16 C          64.5735   90.4356   14.7545 C.2     1  UNL1        0.0100
     17 C          64.0248   90.6750   13.3791 C.3     1  UNL1        0.2021
     18 C          63.7714   89.4119   13.2058 C.2     1  UNL1        0.3458
     19 O          63.5194   89.6557   12.5292 O.2     1  UNL1       -0.2471
     20 O          63.7923   88.6701   13.5045 O.3     1  UNL1       -0.4459
     21 C          62.6141   83.0478   12.6141 C.ar    1  UNL1        0.0580
     22 C          62.7818   81.7836   11.8243 C.ar    1  UNL1        0.0430
     23 C          62.7639   80.6314   12.7845 C.ar    1  UNL1        0.1795
     24 O          62.5851   81.1835   14.1678 O.2     1  UNL1       -0.4475
     25 C          62.4925   82.6769   14.0624 C.ar    1  UNL1        0.1789
     26 O          63.9856   92.0660   12.8190 O.3     1  UNL1       -0.3184
     27 C          65.1446   92.5864   12.0216 C.3     1  UNL1        0.2663
     28 O          64.9173   93.6081   10.9471 O.3     1  UNL1       -0.3260
     29 C          66.0764   94.1285   10.1497 C.3     1  UNL1        0.1761
     30 C          67.4627   93.6271   10.4267 C.3     1  UNL1        0.1694
     31 O          68.6217   94.1474    9.6293 O.3     1  UNL1       -0.3794
     32 C          67.6899   92.6053   11.5012 C.3     1  UNL1        0.1715
     33 O          69.0762   92.1039   11.7782 O.3     1  UNL1       -0.3794
     34 C          66.5309   92.0850   12.2986 C.3     1  UNL1        0.1964
     35 O          66.7582   91.0632   13.3730 O.3     1  UNL1       -0.3775
     36 H          68.3035   94.7958    8.9818 H       1  UNL1        0.2105
     37 H          69.0470   91.4530   12.4968 H       1  UNL1        0.2105
     38 H          65.9112   90.8363   13.7878 H       1  UNL1        0.2106
     39 C          65.8491   95.1502    9.0753 C.3     1  UNL1        0.1693
     40 O          66.6170   95.0697    7.7892 O.3     1  UNL1       -0.3794
     41 H          67.5583   95.2250    7.9644 H       1  UNL1        0.2105
@<TRIPOS>BOND
     1     2     1    1
     2     2     3    1
     3     3     4    1
     4     4    21    1
     5    21    22   ar
     6    22    23   ar
     7    23    24   ar
     8    24    25   ar
     9     4     5    1
    10     5     6    1
    11     6     7    2
    12     6     8    1
    13     8     9    2
    14     9    10    1
    15    10    11    1
    16    11    12    1
    17    11    13    1
    18    13    14    1
    19    14    15    1
    20    15    16    2
    21    16    17    1
    22    17    26    1
    23    27    26    1
    24    27    28    1
    25    28    29    1
    26    29    39    1
    27    39    40    1
    28    29    30    1
    29    30    31    1
    30    30    32    1
    31    32    33    1
    32    32    34    1
    33    34    35    1
    34    17    18    1
    35    18    19    2
    36    18    20    1
    37     8     2    1
    38    17    11    1
    39    34    27    1
    40    13     2    1
    41    14    20    1
    42    25    21   ar
    43    40    41    1
    44    31    36    1
    45    33    37    1
    46    35    38    1
@<TRIPOS>MOLECULE
*****
 41 46 0 0 0
SMALL
GASTEIGER

@<TRIPOS>ATOM
      1 C          63.4287   85.9491   13.5497 C.3     1  UNL1        0.0048
      2 C          62.9328   86.2331   12.1628 C.3     1  UNL1        0.0324
      3 C          62.9223   84.8289   12.6902 C.3     1  UNL1        0.0528
      4 C          62.4158   83.7087   11.8307 C.3     1  UNL1        0.1948
      5 O          61.9199   83.9927   10.4438 O.3     1  UNL1       -0.4447
      6 C          61.9305   85.3969    9.9164 C.2     1  UNL1        0.3370
      7 O          61.4346   85.6809    8.5295 O.2     1  UNL1       -0.2453
      8 C          62.4369   86.5171   10.7759 C.2     1  UNL1        0.0488
      9 C          62.4475   87.9213   10.2485 C.2     1  UNL1       -0.0239
     10 C          62.9539   89.0414   11.1080 C.3     1  UNL1        0.0292
     11 C          63.4498   88.7574   12.4949 C.3     1  UNL1        0.0445
     12 C          63.4604   90.1616   11.9674 C.3     1  UNL1        0.0037
     13 C          63.4393   87.3533   13.0223 C.3     1  UNL1        0.0519
     14 C          63.9352   87.0693   14.4091 C.3     1  UNL1        0.1910
     15 C          64.4416   88.1894   15.2686 C.2     1  UNL1        0.0149
     16 C          64.4521   89.5936   14.7412 C.2     1  UNL1        0.0100
     17 C          63.9562   89.8776   13.3543 C.3     1  UNL1        0.2021
     18 C          63.6812   88.6249   13.1421 C.2     1  UNL1        0.3458
     19 O          63.4580   88.8902   12.4634 O.2     1  UNL1       -0.2471
     20 O          63.6756   87.8760   13.4233 O.3     1  UNL1       -0.4459
     21 C          62.4053   82.3045   12.3581 C.ar    1  UNL1        0.0580
     22 C          61.9421   81.8774   13.7194 C.ar    1  UNL1        0.0430
     23 C          62.1066   80.3898   13.8194 C.ar    1  UNL1        0.1795
     24 O          62.6715   79.8976   12.5200 O.2     1  UNL1       -0.4475
     25 C          62.8561   81.0809   11.6168 C.ar    1  UNL1        0.1789
     26 O          63.9668   91.2818   12.8269 O.3     1  UNL1       -0.3184
     27 C          65.2038   91.8308   12.1801 C.3     1  UNL1        0.2663
     28 O          66.5418   91.6270   12.8267 O.3     1  UNL1       -0.3260
     29 C          67.7789   92.1760   12.1798 C.3     1  UNL1        0.1761
     30 C          67.6778   92.9286   10.8862 C.3     1  UNL1        0.1694
     31 O          68.9148   93.4775   10.2394 O.3     1  UNL1       -0.3794
     32 C          66.3398   93.1323   10.2396 C.3     1  UNL1        0.1715
     33 O          66.2388   93.8850    8.9460 O.3     1  UNL1       -0.3794
     34 C          65.1028   92.5834   10.8864 C.3     1  UNL1        0.1964
     35 O          63.7648   92.7871   10.2398 O.3     1  UNL1       -0.3775
     36 H          69.6880   93.2592   10.7829 H       1  UNL1        0.2105
     37 H          65.3106   93.9257    8.6673 H       1  UNL1        0.2105
     38 H          63.0765   92.3729   10.7834 H       1  UNL1        0.2106
     39 C          69.1169   91.9723   12.8264 C.3     1  UNL1        0.1693
     40 O          69.3080   92.3070   14.2761 O.3     1  UNL1       -0.3794
     41 H          69.2105   93.2637   14.4027 H       1  UNL1        0.2105
@<TRIPOS>BOND
     1     2     1    1
     2     2     3    1
     3     3     4    1
     4     4    21    1
     5    21    22   ar
     6    22    23   ar
     7    23    24   ar
     8    24    25   ar
     9     4     5    1
    10     5     6    1
    11     6     7    2
    12     6     8    1
    13     8     9    2
    14     9    10    1
    15    10    11    1
    16    11    12    1
    17    11    13    1
    18    13    14    1
    19    14    15    1
    20    15    16    2
    21    16    17    1
    22    17    26    1
    23    27    26    1
    24    27    28    1
    25    28    29    1
    26    29    39    1
    27    39    40    1
    28    29    30    1
    29    30    31    1
    30    30    32    1
    31    32    33    1
    32    32    34    1
    33    34    35    1
    34    17    18    1
    35    18    19    2
    36    18    20    1
    37     8     2    1
    38    17    11    1
    39    34    27    1
    40    13     2    1
    41    14    20    1
    42    25    21   ar
    43    40    41    1
    44    31    36    1
    45    33    37    1
    46    35    38    1
@<TRIPOS>MOLECULE
*****
 41 46 0 0 0
SMALL
GASTEIGER

@<TRIPOS>ATOM
      1 C          61.2768   86.0631    9.7518 C.3     1  UNL1        0.0048
      2 C          61.7430   87.2897   10.4785 C.3     1  UNL1        0.0324
      3 C          62.1469   85.9301   10.9663 C.3     1  UNL1        0.0528
      4 C          63.0170   85.7969   12.1810 C.3     1  UNL1        0.1948
      5 O          63.4832   87.0236   12.9077 O.3     1  UNL1       -0.4447
      6 C          63.0792   88.3833   12.4197 C.2     1  UNL1        0.3370
      7 O          63.5454   89.6099   13.1464 O.2     1  UNL1       -0.2453
      8 C          62.2091   88.5164   11.2052 C.2     1  UNL1        0.0488
      9 C          61.8051   89.8761   10.7173 C.2     1  UNL1       -0.0239
     10 C          60.9350   90.0092    9.5027 C.3     1  UNL1        0.0292
     11 C          60.4689   88.7825    8.7760 C.3     1  UNL1        0.0445
     12 C          60.0649   90.1422    8.2882 C.3     1  UNL1        0.0037
     13 C          60.8728   87.4229    9.2639 C.3     1  UNL1        0.0519
     14 C          60.4067   86.1962    8.5372 C.3     1  UNL1        0.1910
     15 C          59.5366   86.3293    7.3226 C.2     1  UNL1        0.0149
     16 C          59.1326   87.6890    6.8348 C.2     1  UNL1        0.0100
     17 C          59.5988   88.9156    7.5615 C.3     1  UNL1        0.2021
     18 C          60.2513   88.2101    8.4369 C.2     1  UNL1        0.3458
     19 O          60.4228   88.8974    8.7180 O.2     1  UNL1       -0.2471
     20 O          60.4668   87.4850    8.6971 O.3     1  UNL1       -0.4459
     21 C          63.4210   84.4373   12.6688 C.ar    1  UNL1        0.0580
     22 C          63.9825   83.3295   11.8275 C.ar    1  UNL1        0.0430
     23 C          64.2429   82.1542   12.7224 C.ar    1  UNL1        0.1795
     24 O          63.8423   82.5355   14.1167 O.2     1  UNL1       -0.4475
     25 C          63.3344   83.9465   14.0836 C.ar    1  UNL1        0.1789
     26 O          59.1948   90.2753    7.0736 O.3     1  UNL1       -0.3184
     27 C          59.7416   90.8008    5.7794 C.3     1  UNL1        0.2663
     28 O          61.1757   90.5538    5.4157 O.3     1  UNL1       -0.3260
     29 C          61.7224   91.0793    4.1215 C.3     1  UNL1        0.1761
     30 C          60.8351   91.8517    3.1910 C.3     1  UNL1        0.1694
     31 O          61.3818   92.3772    1.8968 O.3     1  UNL1       -0.3794
     32 C          59.4009   92.0987    3.5546 C.3     1  UNL1        0.1715
     33 O          58.5135   92.8711    2.6241 O.3     1  UNL1       -0.3794
     34 C          58.8542   91.5732    4.8488 C.3     1  UNL1        0.1964
     35 O          57.4200   91.8202    5.2125 O.3     1  UNL1       -0.3775
     36 H          62.3169   92.1316    1.8174 H       1  UNL1        0.2105
     37 H          57.6250   92.9396    3.0071 H       1  UNL1        0.2105
     38 H          57.2308   91.4166    6.0740 H       1  UNL1        0.2106
     39 C          63.1566   90.8324    3.7578 C.3     1  UNL1        0.1693
     40 O          63.9476   91.8987    3.0596 O.3     1  UNL1       -0.3794
     41 H          63.5790   92.0475    2.1747 H       1  UNL1        0.2105
@<TRIPOS>BOND
     1     2     1    1
     2     2     3    1
     3     3     4    1
     4     4    21    1
     5    21    22   ar
     6    22    23   ar
     7    23    24   ar
     8    24    25   ar
     9     4     5    1
    10     5     6    1
    11     6     7    2
    12     6     8    1
    13     8     9    2
    14     9    10    1
    15    10    11    1
    16    11    12    1
    17    11    13    1
    18    13    14    1
    19    14    15    1
    20    15    16    2
    21    16    17    1
    22    17    26    1
    23    27    26    1
    24    27    28    1
    25    28    29    1
    26    29    39    1
    27    39    40    1
    28    29    30    1
    29    30    31    1
    30    30    32    1
    31    32    33    1
    32    32    34    1
    33    34    35    1
    34    17    18    1
    35    18    19    2
    36    18    20    1
    37     8     2    1
    38    17    11    1
    39    34    27    1
    40    13     2    1
    41    14    20    1
    42    25    21   ar
    43    40    41    1
    44    31    36    1
    45    33    37    1
    46    35    38    1
