@<TRIPOS>MOLECULE
*****
 40 43 0 0 0
SMALL
GASTEIGER

@<TRIPOS>ATOM
      1 C          61.9556   88.2482   11.0411 C.3     1  UNL1        0.0822
      2 C          62.9343   89.2807   11.5168 C.ar    1  UNL1        0.0375
      3 C          63.2286   90.4822   10.6685 C.ar    1  UNL1        0.0023
      4 C          64.2073   91.5147   11.1442 C.ar    1  UNL1        0.0181
      5 C          64.5016   92.7162   10.2959 C.ar    1  UNL1        0.0082
      6 C          65.4802   93.7486   10.7716 C.ar    1  UNL1        0.0347
      7 BR         65.7746   94.9502    9.9232 Br      1  UNL1       -0.0490
      8 C          66.1645   93.5795   12.0957 C.ar    1  UNL1        0.0082
      9 C          65.8701   92.3780   12.9440 C.ar    1  UNL1        0.0197
     10 C          64.8915   91.3456   12.4683 C.ar    1  UNL1        0.0844
     11 N          64.5971   90.1440   13.3166 N.ar    1  UNL1       -0.2119
     12 C          63.6185   89.1116   12.8409 C.ar    1  UNL1        0.2211
     13 O          63.3241   87.9100   13.6893 O.3     1  UNL1       -0.4563
     14 C          64.3398   87.4251   14.6809 C.3     1  UNL1        0.2542
     15 C          62.4495   86.9911   10.3886 C.ar    1  UNL1        0.0375
     16 C          62.9695   87.0305    8.9822 C.ar    1  UNL1        0.0023
     17 C          63.4634   85.7735    8.3296 C.ar    1  UNL1        0.0206
     18 C          63.4372   84.4769    9.0835 C.ar    1  UNL1        0.1020
     19 N          62.9171   84.4375   10.4899 N.ar    1  UNL1       -0.2104
     20 C          62.4233   85.6946   11.1424 C.ar    1  UNL1        0.2211
     21 O          61.9032   85.6552   12.5488 O.3     1  UNL1       -0.4563
     22 C          62.3757   84.5903   13.4936 C.3     1  UNL1        0.2542
     23 C          60.4831   88.4728   11.2180 C.3     1  UNL1        0.1163
     24 O          60.6937   88.6972   12.6861 O.3     1  UNL1       -0.3820
     25 H          59.8413   88.8825   13.1104 H       1  UNL1        0.2107
     26 C          59.9312   86.6286    7.7475 C.ar    1  UNL1        0.2272
     27 C          60.1418   86.8529    9.2156 C.ar    1  UNL1        0.0559
     28 C          60.2725   88.2484    9.7499 C.ar    1  UNL1        0.0117
     29 C          60.1927   89.4195    8.8161 C.ar    1  UNL1        0.0559
     30 C          59.9821   89.1952    7.3480 C.ar    1  UNL1        0.2272
     31 N          59.8514   87.7997    6.8137 N.ar    1  UNL1       -0.1767
     32 C          60.9218   84.6236    6.4250 C.3     1  UNL1        0.2542
     33 O          59.8005   85.2330    7.2133 O.3     1  UNL1       -0.4561
     34 O          59.9023   90.3664    6.4141 O.3     1  UNL1       -0.4561
     35 C          58.6742   90.5775    5.5791 C.3     1  UNL1        0.2542
     36 C          59.0106   88.6974   11.3948 C.3     1  UNL1        0.0491
     37 C          58.5026   89.4224   12.6058 C.3     1  UNL1        0.0750
     38 N          57.9690   88.6482   13.7745 N.3     1  UNL1       -0.2702
     39 C          58.7518   88.5848   15.0524 C.3     1  UNL1        0.0897
     40 C          56.6527   87.9374   13.6652 C.3     1  UNL1        0.0897
@<TRIPOS>BOND
     1    32    33    1
     2    33    26    1
     3    26    27   ar
     4    27    28   ar
     5    28    23    1
     6    23    24    1
     7    23    36    1
     8    36    37    1
     9    37    38    1
    10    38    39    1
    11    38    40    1
    12    23     1    1
    13     1    15    1
    14    15    16   ar
    15    16    17   ar
    16    17    18   ar
    17    18    19   ar
    18    19    20   ar
    19    20    21    1
    20    21    22    1
    21     1     2    1
    22     2     3   ar
    23     3     4   ar
    24     4     5   ar
    25     5     6   ar
    26     6     7    1
    27     6     8   ar
    28     8     9   ar
    29     9    10   ar
    30    10    11   ar
    31    11    12   ar
    32    12    13    1
    33    13    14    1
    34    28    29   ar
    35    29    30   ar
    36    30    34    1
    37    34    35    1
    38    30    31   ar
    39    31    26   ar
    40    20    15   ar
    41    12     2   ar
    42    10     4   ar
    43    24    25    1
@<TRIPOS>MOLECULE
*****
 40 43 0 0 0
SMALL
GASTEIGER

@<TRIPOS>ATOM
      1 C          61.9594   88.2462   11.0362 C.3     1  UNL1        0.0822
      2 C          62.9390   89.2786   11.5104 C.ar    1  UNL1        0.0375
      3 C          63.2301   90.4814   10.6629 C.ar    1  UNL1        0.0023
      4 C          64.2097   91.5138   11.1371 C.ar    1  UNL1        0.0181
      5 C          64.5007   92.7167   10.2896 C.ar    1  UNL1        0.0082
      6 C          65.4803   93.7489   10.7637 C.ar    1  UNL1        0.0347
      7 BR         65.7714   94.9519    9.9162 Br      1  UNL1       -0.0490
      8 C          66.1688   93.5783   12.0854 C.ar    1  UNL1        0.0082
      9 C          65.8777   92.3754   12.9329 C.ar    1  UNL1        0.0197
     10 C          64.8982   91.3432   12.4588 C.ar    1  UNL1        0.0844
     11 N          64.6071   90.1402   13.3063 N.ar    1  UNL1       -0.2119
     12 C          63.6275   89.1079   12.8321 C.ar    1  UNL1        0.2211
     13 O          63.3364   87.9050   13.6796 O.3     1  UNL1       -0.4563
     14 C          64.3580   87.4152   14.6627 C.3     1  UNL1        0.2542
     15 C          62.4522   86.9878   10.3855 C.ar    1  UNL1        0.0375
     16 C          62.9721   87.0247    8.9790 C.ar    1  UNL1        0.0023
     17 C          63.4649   85.7662    8.3283 C.ar    1  UNL1        0.0206
     18 C          63.4376   84.4708    9.0841 C.ar    1  UNL1        0.1020
     19 N          62.9176   84.4339   10.4906 N.ar    1  UNL1       -0.2104
     20 C          62.4249   85.6924   11.1413 C.ar    1  UNL1        0.2211
     21 O          61.9049   85.6555   12.5478 O.3     1  UNL1       -0.4563
     22 C          62.3735   84.5892   13.4929 C.3     1  UNL1        0.2542
     23 C          60.4871   88.4724   11.2128 C.3     1  UNL1        0.1163
     24 O          60.6980   88.6991   12.6805 O.3     1  UNL1       -0.3820
     25 H          59.8458   88.8859   13.1046 H       1  UNL1        0.2107
     26 C          59.9852   89.1886    7.3418 C.ar    1  UNL1        0.2272
     27 C          60.1961   89.4153    8.8095 C.ar    1  UNL1        0.0559
     28 C          60.2763   88.2457    9.7451 C.ar    1  UNL1        0.0117
     29 C          60.1456   86.8493    9.2131 C.ar    1  UNL1        0.0559
     30 C          59.9347   86.6226    7.7454 C.ar    1  UNL1        0.2272
     31 N          59.8545   87.7922    6.8098 N.ar    1  UNL1       -0.1767
     32 C          58.6649   90.5849    5.5933 C.3     1  UNL1        0.2542
     33 O          59.9050   90.3583    6.4061 O.3     1  UNL1       -0.4561
     34 O          59.8040   85.2262    7.2134 O.3     1  UNL1       -0.4561
     35 C          60.9229   84.6177    6.4210 C.3     1  UNL1        0.2542
     36 C          59.0149   88.6986   11.3894 C.3     1  UNL1        0.0491
     37 C          58.5077   89.4268   12.5987 C.3     1  UNL1        0.0750
     38 N          57.9729   88.6558   13.7690 N.3     1  UNL1       -0.2702
     39 C          56.6538   87.9498   13.6625 C.3     1  UNL1        0.0897
     40 C          58.7574   88.5908   15.0459 C.3     1  UNL1        0.0897
@<TRIPOS>BOND
     1    32    33    1
     2    33    26    1
     3    26    27   ar
     4    27    28   ar
     5    28    23    1
     6    23    24    1
     7    23    36    1
     8    36    37    1
     9    37    38    1
    10    38    39    1
    11    38    40    1
    12    23     1    1
    13     1    15    1
    14    15    16   ar
    15    16    17   ar
    16    17    18   ar
    17    18    19   ar
    18    19    20   ar
    19    20    21    1
    20    21    22    1
    21     1     2    1
    22     2     3   ar
    23     3     4   ar
    24     4     5   ar
    25     5     6   ar
    26     6     7    1
    27     6     8   ar
    28     8     9   ar
    29     9    10   ar
    30    10    11   ar
    31    11    12   ar
    32    12    13    1
    33    13    14    1
    34    28    29   ar
    35    29    30   ar
    36    30    34    1
    37    34    35    1
    38    30    31   ar
    39    31    26   ar
    40    20    15   ar
    41    12     2   ar
    42    10     4   ar
    43    24    25    1
@<TRIPOS>MOLECULE
*****
 40 43 0 0 0
SMALL
GASTEIGER

@<TRIPOS>ATOM
      1 C          62.1418   88.5376   11.5418 C.3     1  UNL1        0.0822
      2 C          62.3938   87.0931   11.2253 C.ar    1  UNL1        0.0375
      3 C          62.8520   86.1577   12.3047 C.ar    1  UNL1        0.0023
      4 C          63.1040   84.7132   11.9882 C.ar    1  UNL1        0.0181
      5 C          63.5623   83.7779   13.0676 C.ar    1  UNL1        0.0082
      6 C          63.8142   82.3335   12.7511 C.ar    1  UNL1        0.0347
      7 BR         64.2725   81.3980   13.8305 Br      1  UNL1       -0.0490
      8 C          63.6079   81.8244   11.3553 C.ar    1  UNL1        0.0082
      9 C          63.1496   82.7598   10.2759 C.ar    1  UNL1        0.0197
     10 C          62.8977   84.2042   10.5924 C.ar    1  UNL1        0.0844
     11 N          62.4394   85.1396    9.5130 N.ar    1  UNL1       -0.2119
     12 C          62.1874   86.5840    9.8295 C.ar    1  UNL1        0.2211
     13 O          61.7292   87.5195    8.7501 O.3     1  UNL1       -0.4563
     14 C          60.5496   87.1591    7.8964 C.3     1  UNL1        0.2542
     15 C          60.7541   89.0023   11.8708 C.ar    1  UNL1        0.0375
     16 C          60.0658   88.4952   13.1033 C.ar    1  UNL1        0.0023
     17 C          58.6781   88.9599   13.4323 C.ar    1  UNL1        0.0206
     18 C          57.9787   89.9317   12.5288 C.ar    1  UNL1        0.1020
     19 N          58.6669   90.4388   11.2962 N.ar    1  UNL1       -0.2104
     20 C          60.0547   89.9741   10.9673 C.ar    1  UNL1        0.2211
     21 O          60.7430   90.4811    9.7347 O.3     1  UNL1       -0.4563
     22 C          60.1640   90.1951    8.3809 C.3     1  UNL1        0.2542
     23 C          63.2776   89.5172   11.5292 C.3     1  UNL1        0.1163
     24 O          63.0900   89.7158   10.0543 O.3     1  UNL1       -0.3820
     25 H          63.7421   90.3559    9.7287 H       1  UNL1        0.2107
     26 C          63.4832   90.2767   15.4190 C.ar    1  UNL1        0.2272
     27 C          63.2956   90.4753   13.9441 C.ar    1  UNL1        0.0559
     28 C          63.4652   89.3187   13.0041 C.ar    1  UNL1        0.0117
     29 C          63.8224   87.9637   13.5391 C.ar    1  UNL1        0.0559
     30 C          64.0099   87.7652   15.0140 C.ar    1  UNL1        0.2272
     31 N          63.8404   88.9217   15.9540 N.ar    1  UNL1       -0.1767
     32 C          64.4983   92.2717   16.7380 C.3     1  UNL1        0.2542
     33 O          63.3136   91.4334   16.3590 O.3     1  UNL1       -0.4561
     34 O          64.3671   86.4100   15.5489 O.3     1  UNL1       -0.4561
     35 C          63.3831   85.6526   16.3903 C.3     1  UNL1        0.2542
     36 C          64.4134   90.4969   11.5166 C.3     1  UNL1        0.0491
     37 C          64.2410   91.8367   10.8645 C.3     1  UNL1        0.0750
     38 N          65.2012   92.9482   11.1691 N.3     1  UNL1       -0.2702
     39 C          65.7513   93.1053   12.5557 C.3     1  UNL1        0.0897
     40 C          65.6114   93.9025   10.0870 C.3     1  UNL1        0.0897
@<TRIPOS>BOND
     1    32    33    1
     2    33    26    1
     3    26    27   ar
     4    27    28   ar
     5    28    23    1
     6    23    24    1
     7    23    36    1
     8    36    37    1
     9    37    38    1
    10    38    39    1
    11    38    40    1
    12    23     1    1
    13     1    15    1
    14    15    16   ar
    15    16    17   ar
    16    17    18   ar
    17    18    19   ar
    18    19    20   ar
    19    20    21    1
    20    21    22    1
    21     1     2    1
    22     2     3   ar
    23     3     4   ar
    24     4     5   ar
    25     5     6   ar
    26     6     7    1
    27     6     8   ar
    28     8     9   ar
    29     9    10   ar
    30    10    11   ar
    31    11    12   ar
    32    12    13    1
    33    13    14    1
    34    28    29   ar
    35    29    30   ar
    36    30    34    1
    37    34    35    1
    38    30    31   ar
    39    31    26   ar
    40    20    15   ar
    41    12     2   ar
    42    10     4   ar
    43    24    25    1
@<TRIPOS>MOLECULE
*****
 40 43 0 0 0
SMALL
GASTEIGER

@<TRIPOS>ATOM
      1 C          62.1415   88.5425   11.5445 C.3     1  UNL1        0.0822
      2 C          62.3932   87.0981   11.2273 C.ar    1  UNL1        0.0375
      3 C          62.8534   86.1626   12.3057 C.ar    1  UNL1        0.0023
      4 C          63.1051   84.7182   11.9886 C.ar    1  UNL1        0.0181
      5 C          63.5654   83.7827   13.0669 C.ar    1  UNL1        0.0082
      6 C          63.8170   82.3384   12.7498 C.ar    1  UNL1        0.0347
      7 BR         64.2773   81.4029   13.8282 Br      1  UNL1       -0.0490
      8 C          63.6084   81.8296   11.3542 C.ar    1  UNL1        0.0082
      9 C          63.1481   82.7651   10.2758 C.ar    1  UNL1        0.0197
     10 C          62.8965   84.2094   10.5930 C.ar    1  UNL1        0.0844
     11 N          62.4362   85.1450    9.5146 N.ar    1  UNL1       -0.2119
     12 C          62.1845   86.5893    9.8318 C.ar    1  UNL1        0.2211
     13 O          61.7242   87.5249    8.7533 O.3     1  UNL1       -0.4563
     14 C          60.5502   87.1594    7.8943 C.3     1  UNL1        0.2542
     15 C          60.7537   89.0075   11.8727 C.ar    1  UNL1        0.0375
     16 C          60.0629   88.4970   13.1024 C.ar    1  UNL1        0.0023
     17 C          58.6751   88.9620   13.4307 C.ar    1  UNL1        0.0206
     18 C          57.9781   89.9376   12.5293 C.ar    1  UNL1        0.1020
     19 N          58.6689   90.4481   11.2996 N.ar    1  UNL1       -0.2104
     20 C          60.0568   89.9830   10.9713 C.ar    1  UNL1        0.2211
     21 O          60.7476   90.4935    9.7416 O.3     1  UNL1       -0.4563
     22 C          60.1784   90.2002    8.3852 C.3     1  UNL1        0.2542
     23 C          63.2776   89.5218   11.5333 C.3     1  UNL1        0.1163
     24 O          63.0909   89.7217   10.0585 O.3     1  UNL1       -0.3820
     25 H          63.7433   90.3618    9.7338 H       1  UNL1        0.2107
     26 C          64.0055   87.7658   15.0171 C.ar    1  UNL1        0.2272
     27 C          63.8187   87.9657   13.5423 C.ar    1  UNL1        0.0559
     28 C          63.4644   89.3218   13.0082 C.ar    1  UNL1        0.0117
     29 C          63.2969   90.4781   13.9489 C.ar    1  UNL1        0.0559
     30 C          63.4837   90.2782   15.4237 C.ar    1  UNL1        0.2272
     31 N          63.8380   88.9220   15.9578 N.ar    1  UNL1       -0.1767
     32 C          63.3790   85.6591   16.4025 C.3     1  UNL1        0.2542
     33 O          64.3598   86.4096   15.5512 O.3     1  UNL1       -0.4561
     34 O          63.3162   91.4345   16.3645 O.3     1  UNL1       -0.4561
     35 C          64.5008   92.2759   16.7371 C.3     1  UNL1        0.2542
     36 C          64.4138   90.5011   11.5222 C.3     1  UNL1        0.0491
     37 C          64.2486   91.8338   10.8541 C.3     1  UNL1        0.0750
     38 N          65.2065   92.9480   11.1561 N.3     1  UNL1       -0.2702
     39 C          65.6134   93.9016   10.0722 C.3     1  UNL1        0.0897
     40 C          65.7574   93.1085   12.5419 C.3     1  UNL1        0.0897
@<TRIPOS>BOND
     1    32    33    1
     2    33    26    1
     3    26    27   ar
     4    27    28   ar
     5    28    23    1
     6    23    24    1
     7    23    36    1
     8    36    37    1
     9    37    38    1
    10    38    39    1
    11    38    40    1
    12    23     1    1
    13     1    15    1
    14    15    16   ar
    15    16    17   ar
    16    17    18   ar
    17    18    19   ar
    18    19    20   ar
    19    20    21    1
    20    21    22    1
    21     1     2    1
    22     2     3   ar
    23     3     4   ar
    24     4     5   ar
    25     5     6   ar
    26     6     7    1
    27     6     8   ar
    28     8     9   ar
    29     9    10   ar
    30    10    11   ar
    31    11    12   ar
    32    12    13    1
    33    13    14    1
    34    28    29   ar
    35    29    30   ar
    36    30    34    1
    37    34    35    1
    38    30    31   ar
    39    31    26   ar
    40    20    15   ar
    41    12     2   ar
    42    10     4   ar
    43    24    25    1
@<TRIPOS>MOLECULE
*****
 40 43 0 0 0
SMALL
GASTEIGER

@<TRIPOS>ATOM
      1 C          62.3388   89.3031   12.2350 C.3     1  UNL1        0.0822
      2 C          62.8391   87.9504   12.6472 C.ar    1  UNL1        0.0375
      3 C          62.8118   86.8113   11.6717 C.ar    1  UNL1        0.0023
      4 C          63.3121   85.4586   12.0839 C.ar    1  UNL1        0.0181
      5 C          63.2849   84.3196   11.1084 C.ar    1  UNL1        0.0082
      6 C          63.7852   82.9669   11.5207 C.ar    1  UNL1        0.0347
      7 BR         63.7579   81.8278   10.5451 Br      1  UNL1       -0.0490
      8 C          64.3127   82.7533   12.9085 C.ar    1  UNL1        0.0082
      9 C          64.3399   83.8924   13.8841 C.ar    1  UNL1        0.0197
     10 C          63.8396   85.2450   13.4718 C.ar    1  UNL1        0.0844
     11 N          63.8668   86.3842   14.4474 N.ar    1  UNL1       -0.2119
     12 C          63.3666   87.7368   14.0351 C.ar    1  UNL1        0.2211
     13 O          63.3938   88.8760   15.0106 O.3     1  UNL1       -0.4563
     14 C          63.1508   88.6207   16.4687 C.3     1  UNL1        0.2542
     15 C          63.3055   90.3487   11.7637 C.ar    1  UNL1        0.0375
     16 C          63.5775   90.5125   10.2977 C.ar    1  UNL1        0.0023
     17 C          64.5442   91.5580    9.8264 C.ar    1  UNL1        0.0206
     18 C          65.2390   92.4400   10.8212 C.ar    1  UNL1        0.1020
     19 N          64.9670   92.2762   12.2872 N.ar    1  UNL1       -0.2104
     20 C          64.0002   91.2306   12.7585 C.ar    1  UNL1        0.2211
     21 O          63.7283   91.0668   14.2245 O.3     1  UNL1       -0.4563
     22 C          64.6951   91.6139   15.2324 C.3     1  UNL1        0.2542
     23 C          60.8717   89.6102   12.2940 C.3     1  UNL1        0.1163
     24 O          61.0357   90.1247   13.6934 O.3     1  UNL1       -0.3820
     25 H          60.1766   90.4229   14.0310 H       1  UNL1        0.2107
     26 C          60.1089   89.5100    8.4006 C.ar    1  UNL1        0.2272
     27 C          60.2729   90.0246    9.8001 C.ar    1  UNL1        0.0559
     28 C          60.7077   89.0957   10.8946 C.ar    1  UNL1        0.0117
     29 C          60.9786   87.6522   10.5897 C.ar    1  UNL1        0.0559
     30 C          60.8146   87.1377    9.1902 C.ar    1  UNL1        0.2272
     31 N          60.3797   88.0666    8.0957 N.ar    1  UNL1       -0.1767
     32 C          59.2590   89.8870    5.9746 C.3     1  UNL1        0.2542
     33 O          59.6740   90.4390    7.3061 O.3     1  UNL1       -0.4561
     34 O          61.0854   85.6941    8.8854 O.3     1  UNL1       -0.4561
     35 C          62.0432   85.3255    7.7914 C.3     1  UNL1        0.2542
     36 C          59.4047   89.9173   12.3530 C.3     1  UNL1        0.0491
     37 C          58.4018   88.8044   12.2775 C.3     1  UNL1        0.0750
     38 N          57.6923   88.3487   13.5181 N.3     1  UNL1       -0.2702
     39 C          56.2460   87.9562   13.4536 C.3     1  UNL1        0.0897
     40 C          58.4290   88.2856   14.8231 C.3     1  UNL1        0.0897
@<TRIPOS>BOND
     1    32    33    1
     2    33    26    1
     3    26    27   ar
     4    27    28   ar
     5    28    23    1
     6    23    24    1
     7    23    36    1
     8    36    37    1
     9    37    38    1
    10    38    39    1
    11    38    40    1
    12    23     1    1
    13     1    15    1
    14    15    16   ar
    15    16    17   ar
    16    17    18   ar
    17    18    19   ar
    18    19    20   ar
    19    20    21    1
    20    21    22    1
    21     1     2    1
    22     2     3   ar
    23     3     4   ar
    24     4     5   ar
    25     5     6   ar
    26     6     7    1
    27     6     8   ar
    28     8     9   ar
    29     9    10   ar
    30    10    11   ar
    31    11    12   ar
    32    12    13    1
    33    13    14    1
    34    28    29   ar
    35    29    30   ar
    36    30    34    1
    37    34    35    1
    38    30    31   ar
    39    31    26   ar
    40    20    15   ar
    41    12     2   ar
    42    10     4   ar
    43    24    25    1
@<TRIPOS>MOLECULE
*****
 40 43 0 0 0
SMALL
GASTEIGER

@<TRIPOS>ATOM
      1 C          62.9207   88.3963   12.9175 C.3     1  UNL1        0.0822
      2 C          63.7287   89.6518   12.7724 C.ar    1  UNL1        0.0375
      3 C          64.6226   90.1018   13.8897 C.ar    1  UNL1        0.0023
      4 C          65.4306   91.3573   13.7445 C.ar    1  UNL1        0.0181
      5 C          66.3245   91.8073   14.8618 C.ar    1  UNL1        0.0082
      6 C          67.1324   93.0627   14.7167 C.ar    1  UNL1        0.0347
      7 BR         68.0264   93.5127   15.8340 Br      1  UNL1       -0.0490
      8 C          67.0465   93.8681   13.4542 C.ar    1  UNL1        0.0082
      9 C          66.1526   93.4182   12.3369 C.ar    1  UNL1        0.0197
     10 C          65.3446   92.1627   12.4820 C.ar    1  UNL1        0.0844
     11 N          64.4507   91.7127   11.3647 N.ar    1  UNL1       -0.2119
     12 C          63.6428   90.4573   11.5099 C.ar    1  UNL1        0.2211
     13 O          62.7488   90.0072   10.3925 O.3     1  UNL1       -0.4563
     14 C          62.3990   90.9550    9.2838 C.3     1  UNL1        0.2542
     15 C          63.4416   87.2610   13.7479 C.ar    1  UNL1        0.0375
     16 C          64.2268   86.1580   13.1022 C.ar    1  UNL1        0.0023
     17 C          64.7477   85.0227   13.9327 C.ar    1  UNL1        0.0206
     18 C          64.4834   84.9903   15.4089 C.ar    1  UNL1        0.1020
     19 N          63.6982   86.0933   16.0546 N.ar    1  UNL1       -0.2104
     20 C          63.1773   87.2287   15.2241 C.ar    1  UNL1        0.2211
     21 O          62.3922   88.3317   15.8698 O.3     1  UNL1       -0.4563
     22 C          63.0569   89.2498   16.8521 C.3     1  UNL1        0.2542
     23 C          61.5919   88.2762   12.2322 C.3     1  UNL1        0.1163
     24 O          61.1556   89.5710   12.8512 O.3     1  UNL1       -0.3820
     25 H          60.2514   89.7769   12.5668 H       1  UNL1        0.2107
     26 C          62.9827   85.6653    9.5867 C.ar    1  UNL1        0.2272
     27 C          62.5465   86.9601   10.2057 C.ar    1  UNL1        0.0559
     28 C          62.0281   86.9815   11.6131 C.ar    1  UNL1        0.0117
     29 C          61.9461   85.7080   12.4015 C.ar    1  UNL1        0.0559
     30 C          62.3824   84.4132   11.7825 C.ar    1  UNL1        0.2272
     31 N          62.9007   84.3919   10.3750 N.ar    1  UNL1       -0.1767
     32 C          62.7283   84.9361    7.1060 C.3     1  UNL1        0.2542
     33 O          63.5011   85.6440    8.1792 O.3     1  UNL1       -0.4561
     34 O          62.3003   83.1398   12.5709 O.3     1  UNL1       -0.4561
     35 C          62.8935   81.8770   12.0199 C.3     1  UNL1        0.2542
     36 C          60.2630   88.1562   11.5468 C.3     1  UNL1        0.0491
     37 C          59.9507   89.0183   10.3598 C.3     1  UNL1        0.0750
     38 N          59.7062   88.3898    9.0199 N.3     1  UNL1       -0.2702
     39 C          59.4139   86.9218    8.9222 C.3     1  UNL1        0.0897
     40 C          59.7540   89.2293    7.7778 C.3     1  UNL1        0.0897
@<TRIPOS>BOND
     1    32    33    1
     2    33    26    1
     3    26    27   ar
     4    27    28   ar
     5    28    23    1
     6    23    24    1
     7    23    36    1
     8    36    37    1
     9    37    38    1
    10    38    39    1
    11    38    40    1
    12    23     1    1
    13     1    15    1
    14    15    16   ar
    15    16    17   ar
    16    17    18   ar
    17    18    19   ar
    18    19    20   ar
    19    20    21    1
    20    21    22    1
    21     1     2    1
    22     2     3   ar
    23     3     4   ar
    24     4     5   ar
    25     5     6   ar
    26     6     7    1
    27     6     8   ar
    28     8     9   ar
    29     9    10   ar
    30    10    11   ar
    31    11    12   ar
    32    12    13    1
    33    13    14    1
    34    28    29   ar
    35    29    30   ar
    36    30    34    1
    37    34    35    1
    38    30    31   ar
    39    31    26   ar
    40    20    15   ar
    41    12     2   ar
    42    10     4   ar
    43    24    25    1
@<TRIPOS>MOLECULE
*****
 40 43 0 0 0
SMALL
GASTEIGER

@<TRIPOS>ATOM
      1 C          62.9181   88.3959   12.9115 C.3     1  UNL1        0.0822
      2 C          63.7244   89.6525   12.7670 C.ar    1  UNL1        0.0375
      3 C          64.6181   90.1028   13.8843 C.ar    1  UNL1        0.0023
      4 C          65.4245   91.3594   13.7397 C.ar    1  UNL1        0.0181
      5 C          66.3182   91.8097   14.8570 C.ar    1  UNL1        0.0082
      6 C          67.1245   93.0663   14.7125 C.ar    1  UNL1        0.0347
      7 BR         68.0183   93.5167   15.8298 Br      1  UNL1       -0.0490
      8 C          67.0370   93.8725   13.4506 C.ar    1  UNL1        0.0082
      9 C          66.1433   93.4222   12.3333 C.ar    1  UNL1        0.0197
     10 C          65.3370   92.1657   12.4779 C.ar    1  UNL1        0.0844
     11 N          64.4433   91.7153   11.3605 N.ar    1  UNL1       -0.2119
     12 C          63.6370   90.4587   11.5051 C.ar    1  UNL1        0.2211
     13 O          62.7432   90.0084   10.3877 O.3     1  UNL1       -0.4563
     14 C          62.3956   90.9551    9.2773 C.3     1  UNL1        0.2542
     15 C          63.4413   87.2601   13.7398 C.ar    1  UNL1        0.0375
     16 C          64.2272   86.1590   13.0916 C.ar    1  UNL1        0.0023
     17 C          64.7505   85.0232   13.9199 C.ar    1  UNL1        0.0206
     18 C          64.4879   84.9884   15.3964 C.ar    1  UNL1        0.1020
     19 N          63.7020   86.0895   16.0445 N.ar    1  UNL1       -0.2104
     20 C          63.1787   87.2254   15.2161 C.ar    1  UNL1        0.2211
     21 O          62.3929   88.3264   15.8643 O.3     1  UNL1       -0.4563
     22 C          63.0595   89.2488   16.8414 C.3     1  UNL1        0.2542
     23 C          61.5884   88.2752   12.2277 C.3     1  UNL1        0.1163
     24 O          61.1510   89.5680   12.8501 O.3     1  UNL1       -0.3820
     25 H          60.2461   89.7730   12.5674 H       1  UNL1        0.2107
     26 C          62.3843   84.4144   11.7686 C.ar    1  UNL1        0.2272
     27 C          61.9468   85.7071   12.3910 C.ar    1  UNL1        0.0559
     28 C          62.0259   86.9824   11.6053 C.ar    1  UNL1        0.0117
     29 C          62.5424   86.9649   10.1972 C.ar    1  UNL1        0.0559
     30 C          62.9799   85.6721    9.5748 C.ar    1  UNL1        0.2272
     31 N          62.9008   84.3969   10.3605 N.ar    1  UNL1       -0.1767
     32 C          63.0358   81.9185   12.0787 C.3     1  UNL1        0.2542
     33 O          62.3052   83.1391   12.5545 O.3     1  UNL1       -0.4561
     34 O          63.4964   85.6546    8.1666 O.3     1  UNL1       -0.4561
     35 C          62.7366   84.9261    7.0980 C.3     1  UNL1        0.2542
     36 C          60.2588   88.1545   11.5439 C.3     1  UNL1        0.0491
     37 C          59.9449   89.0161   10.3569 C.3     1  UNL1        0.0750
     38 N          59.6983   88.3870    9.0177 N.3     1  UNL1       -0.2702
     39 C          59.7474   89.2253    7.7748 C.3     1  UNL1        0.0897
     40 C          59.4026   86.9196    8.9214 C.3     1  UNL1        0.0897
@<TRIPOS>BOND
     1    32    33    1
     2    33    26    1
     3    26    27   ar
     4    27    28   ar
     5    28    23    1
     6    23    24    1
     7    23    36    1
     8    36    37    1
     9    37    38    1
    10    38    39    1
    11    38    40    1
    12    23     1    1
    13     1    15    1
    14    15    16   ar
    15    16    17   ar
    16    17    18   ar
    17    18    19   ar
    18    19    20   ar
    19    20    21    1
    20    21    22    1
    21     1     2    1
    22     2     3   ar
    23     3     4   ar
    24     4     5   ar
    25     5     6   ar
    26     6     7    1
    27     6     8   ar
    28     8     9   ar
    29     9    10   ar
    30    10    11   ar
    31    11    12   ar
    32    12    13    1
    33    13    14    1
    34    28    29   ar
    35    29    30   ar
    36    30    34    1
    37    34    35    1
    38    30    31   ar
    39    31    26   ar
    40    20    15   ar
    41    12     2   ar
    42    10     4   ar
    43    24    25    1
@<TRIPOS>MOLECULE
*****
 40 43 0 0 0
SMALL
GASTEIGER

@<TRIPOS>ATOM
      1 C          62.0548   89.2427   11.4393 C.3     1  UNL1        0.0822
      2 C          63.0506   90.2766   11.8747 C.ar    1  UNL1        0.0375
      3 C          63.8235   91.0520   10.8493 C.ar    1  UNL1        0.0023
      4 C          64.8193   92.0859   11.2847 C.ar    1  UNL1        0.0181
      5 C          65.5922   92.8614   10.2593 C.ar    1  UNL1        0.0082
      6 C          66.5880   93.8952   10.6947 C.ar    1  UNL1        0.0347
      7 BR         67.3609   94.6707    9.6693 Br      1  UNL1       -0.0490
      8 C          66.8109   94.1535   12.1553 C.ar    1  UNL1        0.0082
      9 C          66.0381   93.3781   13.1807 C.ar    1  UNL1        0.0197
     10 C          65.0423   92.3443   12.7453 C.ar    1  UNL1        0.0844
     11 N          64.2694   91.5688   13.7707 N.ar    1  UNL1       -0.2119
     12 C          63.2736   90.5349   13.3353 C.ar    1  UNL1        0.2211
     13 O          62.5007   89.7594   14.3607 O.3     1  UNL1       -0.4563
     14 C          62.8944   89.8280   15.8065 C.3     1  UNL1        0.2542
     15 C          60.6822   89.2221   12.0439 C.ar    1  UNL1        0.0375
     16 C          60.4604   88.5753   13.3790 C.ar    1  UNL1        0.0023
     17 C          59.0878   88.5547   13.9836 C.ar    1  UNL1        0.0206
     18 C          57.9370   89.1808   13.2531 C.ar    1  UNL1        0.1020
     19 N          58.1588   89.8276   11.9180 N.ar    1  UNL1       -0.2104
     20 C          59.5315   89.8482   11.3134 C.ar    1  UNL1        0.2211
     21 O          59.7533   90.4950    9.9783 O.3     1  UNL1       -0.4563
     22 C          59.5719   89.6990    8.7200 C.3     1  UNL1        0.2542
     23 C          62.4316   88.2295   10.3994 C.3     1  UNL1        0.1163
     24 O          62.1572   89.2348    9.3205 O.3     1  UNL1       -0.3820
     25 H          62.3278   88.8338    8.4539 H       1  UNL1        0.2107
     26 C          62.5288   84.7981   12.3910 C.ar    1  UNL1        0.2272
     27 C          62.2544   85.8035   11.3121 C.ar    1  UNL1        0.0559
     28 C          62.7059   87.2242   11.4784 C.ar    1  UNL1        0.0117
     29 C          63.4318   87.6395   12.7235 C.ar    1  UNL1        0.0559
     30 C          63.7061   86.6342   13.8025 C.ar    1  UNL1        0.2272
     31 N          63.2546   85.2135   13.6362 N.ar    1  UNL1       -0.1767
     32 C          62.4902   82.3373   13.2236 C.3     1  UNL1        0.2542
     33 O          62.0772   83.3774   12.2247 O.3     1  UNL1       -0.4561
     34 O          64.4320   87.0497   15.0477 O.3     1  UNL1       -0.4561
     35 C          64.0777   86.4268   16.3655 C.3     1  UNL1        0.2542
     36 C          62.8084   87.2163    9.3595 C.3     1  UNL1        0.0491
     37 C          61.7593   86.6504    8.4489 C.3     1  UNL1        0.0750
     38 N          62.0117   85.3622    7.7232 N.3     1  UNL1       -0.2702
     39 C          61.0761   84.9165    6.6388 C.3     1  UNL1        0.0897
     40 C          63.1997   84.5196    8.0819 C.3     1  UNL1        0.0897
@<TRIPOS>BOND
     1    32    33    1
     2    33    26    1
     3    26    27   ar
     4    27    28   ar
     5    28    23    1
     6    23    24    1
     7    23    36    1
     8    36    37    1
     9    37    38    1
    10    38    39    1
    11    38    40    1
    12    23     1    1
    13     1    15    1
    14    15    16   ar
    15    16    17   ar
    16    17    18   ar
    17    18    19   ar
    18    19    20   ar
    19    20    21    1
    20    21    22    1
    21     1     2    1
    22     2     3   ar
    23     3     4   ar
    24     4     5   ar
    25     5     6   ar
    26     6     7    1
    27     6     8   ar
    28     8     9   ar
    29     9    10   ar
    30    10    11   ar
    31    11    12   ar
    32    12    13    1
    33    13    14    1
    34    28    29   ar
    35    29    30   ar
    36    30    34    1
    37    34    35    1
    38    30    31   ar
    39    31    26   ar
    40    20    15   ar
    41    12     2   ar
    42    10     4   ar
    43    24    25    1
@<TRIPOS>MOLECULE
*****
 40 43 0 0 0
SMALL
GASTEIGER

@<TRIPOS>ATOM
      1 C          62.1353   89.1774   11.5451 C.3     1  UNL1        0.0822
      2 C          63.1080   90.2334   11.9797 C.ar    1  UNL1        0.0375
      3 C          63.7683   91.1110   10.9581 C.ar    1  UNL1        0.0023
      4 C          64.7409   92.1671   11.3927 C.ar    1  UNL1        0.0181
      5 C          65.4012   93.0447   10.3711 C.ar    1  UNL1        0.0082
      6 C          66.3738   94.1007   10.8057 C.ar    1  UNL1        0.0347
      7 BR         67.0342   94.9783    9.7841 Br      1  UNL1       -0.0490
      8 C          66.6860   94.2791   12.2620 C.ar    1  UNL1        0.0082
      9 C          66.0257   93.4015   13.2836 C.ar    1  UNL1        0.0197
     10 C          65.0531   92.3455   12.8490 C.ar    1  UNL1        0.0844
     11 N          64.3927   91.4678   13.8706 N.ar    1  UNL1       -0.2119
     12 C          63.4202   90.4118   13.4360 C.ar    1  UNL1        0.2211
     13 O          62.7598   89.5342   14.4576 O.3     1  UNL1       -0.4563
     14 C          63.1080   89.6802   15.9093 C.3     1  UNL1        0.2542
     15 C          60.7800   89.0979   12.1828 C.ar    1  UNL1        0.0375
     16 C          60.6518   89.1191   13.6771 C.ar    1  UNL1        0.0023
     17 C          59.2964   89.0397   14.3148 C.ar    1  UNL1        0.0206
     18 C          58.0692   88.9389   13.4581 C.ar    1  UNL1        0.1020
     19 N          58.1974   88.9177   11.9638 N.ar    1  UNL1       -0.2104
     20 C          59.5529   88.9972   11.3261 C.ar    1  UNL1        0.2211
     21 O          59.6811   88.9759    9.8317 O.3     1  UNL1       -0.4563
     22 C          59.1008   87.8381    9.0453 C.3     1  UNL1        0.2542
     23 C          62.5181   88.2008   10.4728 C.3     1  UNL1        0.1163
     24 O          62.2931   89.2564    9.4311 O.3     1  UNL1       -0.3820
     25 H          62.4780   88.8886    8.5528 H       1  UNL1        0.2107
     26 C          63.7030   86.4272   13.8195 C.ar    1  UNL1        0.2272
     27 C          63.4780   87.4828   12.7778 C.ar    1  UNL1        0.0559
     28 C          62.7431   87.1452   11.5145 C.ar    1  UNL1        0.0117
     29 C          62.2334   85.7521   11.2928 C.ar    1  UNL1        0.0559
     30 C          62.4584   84.6965   12.3345 C.ar    1  UNL1        0.2272
     31 N          63.1932   85.0340   13.5978 N.ar    1  UNL1       -0.1767
     32 C          63.9909   86.1796   16.3897 C.3     1  UNL1        0.2542
     33 O          64.4378   86.7648   15.0829 O.3     1  UNL1       -0.4561
     34 O          61.9485   83.3033   12.1127 O.3     1  UNL1       -0.4561
     35 C          62.9103   82.1909   11.8170 C.3     1  UNL1        0.2542
     36 C          62.9009   87.2243    9.4005 C.3     1  UNL1        0.0491
     37 C          61.8437   86.6177    8.5264 C.3     1  UNL1        0.0750
     38 N          62.1177   85.3355    7.7977 N.3     1  UNL1       -0.2702
     39 C          63.2409   84.4459    8.2415 C.3     1  UNL1        0.0897
     40 C          61.2686   84.9429    6.6252 C.3     1  UNL1        0.0897
@<TRIPOS>BOND
     1    32    33    1
     2    33    26    1
     3    26    27   ar
     4    27    28   ar
     5    28    23    1
     6    23    24    1
     7    23    36    1
     8    36    37    1
     9    37    38    1
    10    38    39    1
    11    38    40    1
    12    23     1    1
    13     1    15    1
    14    15    16   ar
    15    16    17   ar
    16    17    18   ar
    17    18    19   ar
    18    19    20   ar
    19    20    21    1
    20    21    22    1
    21     1     2    1
    22     2     3   ar
    23     3     4   ar
    24     4     5   ar
    25     5     6   ar
    26     6     7    1
    27     6     8   ar
    28     8     9   ar
    29     9    10   ar
    30    10    11   ar
    31    11    12   ar
    32    12    13    1
    33    13    14    1
    34    28    29   ar
    35    29    30   ar
    36    30    34    1
    37    34    35    1
    38    30    31   ar
    39    31    26   ar
    40    20    15   ar
    41    12     2   ar
    42    10     4   ar
    43    24    25    1
