@<TRIPOS>MOLECULE
*****
 37 41 0 0 0
SMALL
GASTEIGER

@<TRIPOS>ATOM
      1 C          61.9545   88.5133   10.9444 C.3     1  UNL1        0.0933
      2 C          62.0088   89.6617    9.9808 C.3     1  UNL1        0.0442
      3 C          61.1138   89.6736    8.7770 C.3     1  UNL1        0.0953
      4 N          60.1646   88.5373    8.5369 N.am    1  UNL1       -0.2794
      5 C          59.2697   88.5492    7.3332 C.2     1  UNL1        0.2252
      6 O          58.3204   87.4129    7.0930 O.2     1  UNL1       -0.2749
      7 C          60.1103   87.3890    9.5005 C.3     1  UNL1        0.0953
      8 C          61.0053   87.3771   10.7042 C.3     1  UNL1        0.0442
      9 N          64.2565   89.2322   13.9856 N.ar    1  UNL1       -0.2773
     10 C          63.4240   89.7067   12.8316 C.ar    1  UNL1        0.3316
     11 O          63.2045   91.1355   12.4314 O.2     1  UNL1       -0.2463
     12 N          62.8494   88.5014   12.1481 N.ar    1  UNL1       -0.2817
     13 C          63.3269   87.2820   12.8797 C.ar    1  UNL1        0.0796
     14 C          63.0821   85.8187   12.6585 C.ar    1  UNL1        0.0188
     15 C          63.7071   84.8072   13.5729 C.ar    1  UNL1        0.0016
     16 C          64.5767   85.2589   14.7085 C.ar    1  UNL1        0.0016
     17 C          64.8215   86.7221   14.9297 C.ar    1  UNL1        0.0188
     18 C          64.1966   87.7337   14.0153 C.ar    1  UNL1        0.0798
     19 C          65.0158   90.1033   14.9420 C.3     1  UNL1        0.1425
     20 C          64.3269   91.2493   15.6215 C.3     1  UNL1        0.1666
     21 O          65.1230   92.4297   16.0937 O.3     1  UNL1       -0.3542
     22 C          66.4762   93.4380   14.1183 C.3     1  UNL1        0.0320
     23 C          66.4398   92.7515   15.4515 C.3     1  UNL1        0.1155
     24 C          67.7203   92.3869   16.1424 C.3     1  UNL1        0.0320
     25 C          59.3240   89.6975    6.3697 C.3     1  UNL1        0.0795
     26 C          58.0709   90.4453    6.0225 C.3     1  UNL1        0.0264
     27 C          58.1254   91.5937    5.0589 C.3     1  UNL1        0.0729
     28 N          59.4329   91.9942    4.4425 N.3     1  UNL1       -0.2689
     29 C          60.6860   91.2464    4.7897 C.3     1  UNL1        0.0729
     30 C          60.6316   90.0981    5.7532 C.3     1  UNL1        0.0264
     31 C          59.4873   93.1425    3.4790 C.3     1  UNL1        0.0992
     32 C          60.1805   92.9815    2.1586 C.ar    1  UNL1       -0.0031
     33 C          59.3808   92.7016    0.9208 C.ar    1  UNL1        0.0178
     34 C          60.0740   92.5406   -0.3996 C.ar    1  UNL1        0.0986
     35 N          61.5670   92.6595   -0.4822 N.ar    1  UNL1       -0.2423
     36 C          62.3668   92.9394    0.7556 C.ar    1  UNL1        0.0986
     37 C          61.6735   93.1004    2.0760 C.ar    1  UNL1        0.0178
@<TRIPOS>BOND
     1    22    23    1
     2    23    24    1
     3    23    21    1
     4    21    20    1
     5    20    19    1
     6    19     9    1
     7     9    10   ar
     8    10    11    2
     9    10    12   ar
    10    12     1    1
    11     1     2    1
    12     2     3    1
    13     3     4    1
    14     4     5   am
    15     5     6    2
    16     5    25    1
    17    25    26    1
    18    26    27    1
    19    27    28    1
    20    28    31    1
    21    31    32    1
    22    32    33   ar
    23    33    34   ar
    24    34    35   ar
    25    35    36   ar
    26    36    37   ar
    27    28    29    1
    28    29    30    1
    29     4     7    1
    30     7     8    1
    31    12    13   ar
    32    13    14   ar
    33    14    15   ar
    34    15    16   ar
    35    16    17   ar
    36    17    18   ar
    37    18     9   ar
    38     8     1    1
    39    18    13   ar
    40    30    25    1
    41    37    32   ar
@<TRIPOS>MOLECULE
*****
 37 41 0 0 0
SMALL
GASTEIGER

@<TRIPOS>ATOM
      1 C          61.8724   88.2731   10.8677 C.3     1  UNL1        0.0933
      2 C          61.9865   89.4435    9.9364 C.3     1  UNL1        0.0442
      3 C          61.0936   89.5355    8.7346 C.3     1  UNL1        0.0953
      4 N          60.0866   88.4572    8.4641 N.am    1  UNL1       -0.2794
      5 C          59.1937   88.5493    7.2623 C.2     1  UNL1        0.2252
      6 O          58.1867   87.4710    6.9918 O.2     1  UNL1       -0.2749
      7 C          59.9725   87.2869    9.3954 C.3     1  UNL1        0.0953
      8 C          60.8654   87.1949   10.5971 C.3     1  UNL1        0.0442
      9 N          64.0273   87.2984   13.9452 N.ar    1  UNL1       -0.2773
     10 C          63.1089   86.9278   12.8186 C.ar    1  UNL1        0.3316
     11 O          62.6201   85.5465   12.4976 O.2     1  UNL1       -0.2463
     12 N          62.7653   88.1810   12.0695 N.ar    1  UNL1       -0.2817
     13 C          63.4712   89.3262   12.7331 C.ar    1  UNL1        0.0796
     14 C          63.5046   90.7951   12.4315 C.ar    1  UNL1        0.0188
     15 C          64.3180   91.7185   13.2892 C.ar    1  UNL1        0.0016
     16 C          65.0980   91.1730   14.4485 C.ar    1  UNL1        0.0016
     17 C          65.0646   89.7040   14.7501 C.ar    1  UNL1        0.0188
     18 C          64.2513   88.7806   13.8924 C.ar    1  UNL1        0.0798
     19 C          64.6181   86.3527   14.9486 C.3     1  UNL1        0.1425
     20 C          63.7990   85.2133   15.4783 C.3     1  UNL1        0.1666
     21 O          64.2668   83.8009   15.2878 O.3     1  UNL1       -0.3542
     22 C          62.2433   82.3733   14.5022 C.3     1  UNL1        0.0320
     23 C          63.6153   82.9277   14.2568 C.3     1  UNL1        0.1155
     24 C          64.3358   82.6087   12.9804 C.3     1  UNL1        0.0320
     25 C          59.3079   89.7196    6.3311 C.3     1  UNL1        0.0795
     26 C          58.0895   90.5217    5.9816 C.3     1  UNL1        0.0264
     27 C          58.2037   91.6921    5.0504 C.3     1  UNL1        0.0729
     28 N          59.5364   92.0604    4.4686 N.3     1  UNL1       -0.2689
     29 C          60.7548   91.2584    4.8182 C.3     1  UNL1        0.0729
     30 C          60.6405   90.0880    5.7494 C.3     1  UNL1        0.0264
     31 C          59.6505   93.2308    3.5375 C.3     1  UNL1        0.0992
     32 C          60.2462   93.0483    2.1730 C.ar    1  UNL1       -0.0031
     33 C          59.3618   92.7232    1.0058 C.ar    1  UNL1        0.0178
     34 C          59.9575   92.5408   -0.3586 C.ar    1  UNL1        0.0986
     35 N          61.4376   92.6834   -0.5560 N.ar    1  UNL1       -0.2423
     36 C          62.3220   93.0085    0.6111 C.ar    1  UNL1        0.0986
     37 C          61.7263   93.1910    1.9756 C.ar    1  UNL1        0.0178
@<TRIPOS>BOND
     1    22    23    1
     2    23    24    1
     3    23    21    1
     4    21    20    1
     5    20    19    1
     6    19     9    1
     7     9    10   ar
     8    10    11    2
     9    10    12   ar
    10    12     1    1
    11     1     2    1
    12     2     3    1
    13     3     4    1
    14     4     5   am
    15     5     6    2
    16     5    25    1
    17    25    26    1
    18    26    27    1
    19    27    28    1
    20    28    31    1
    21    31    32    1
    22    32    33   ar
    23    33    34   ar
    24    34    35   ar
    25    35    36   ar
    26    36    37   ar
    27    28    29    1
    28    29    30    1
    29     4     7    1
    30     7     8    1
    31    12    13   ar
    32    13    14   ar
    33    14    15   ar
    34    15    16   ar
    35    16    17   ar
    36    17    18   ar
    37    18     9   ar
    38     8     1    1
    39    18    13   ar
    40    30    25    1
    41    37    32   ar
@<TRIPOS>MOLECULE
*****
 37 41 0 0 0
SMALL
GASTEIGER

@<TRIPOS>ATOM
      1 C          63.6205   85.6045   14.2719 C.3     1  UNL1        0.0933
      2 C          64.1683   86.6666   13.3652 C.3     1  UNL1        0.0442
      3 C          64.2789   88.0820   13.8493 C.3     1  UNL1        0.0953
      4 N          63.8418   88.4354   15.2400 N.am    1  UNL1       -0.2794
      5 C          63.9525   89.8508   15.7241 C.2     1  UNL1        0.2252
      6 O          63.5154   90.2042   17.1148 O.2     1  UNL1       -0.2749
      7 C          63.2941   87.3733   16.1466 C.3     1  UNL1        0.0953
      8 C          63.1835   85.9579   15.6625 C.3     1  UNL1        0.0442
      9 N          63.2468   81.7767   13.7493 N.ar    1  UNL1       -0.2773
     10 C          63.2945   82.9780   14.6462 C.ar    1  UNL1        0.3316
     11 O          63.1520   82.9696   16.1394 O.2     1  UNL1       -0.2463
     12 N          63.5099   84.1890   13.7878 N.ar    1  UNL1       -0.2817
     13 C          63.5952   83.7363   12.3603 C.ar    1  UNL1        0.0796
     14 C          63.8000   84.4890   11.0792 C.ar    1  UNL1        0.0188
     15 C          63.8421   83.7507    9.7741 C.ar    1  UNL1        0.0016
     16 C          63.6794   82.2597    9.7503 C.ar    1  UNL1        0.0016
     17 C          63.4747   81.5070   11.0315 C.ar    1  UNL1        0.0188
     18 C          63.4326   82.2453   12.3365 C.ar    1  UNL1        0.0798
     19 C          63.0480   80.3561   14.1880 C.3     1  UNL1        0.1425
     20 C          61.6804   79.7418   14.1439 C.3     1  UNL1        0.1666
     21 O          60.4632   80.6133   14.2394 O.3     1  UNL1       -0.3542
     22 C          57.8756   80.8458   14.2353 C.3     1  UNL1        0.0320
     23 C          59.1029   79.9918   14.3545 C.3     1  UNL1        0.1155
     24 C          58.9699   78.5162   14.5888 C.3     1  UNL1        0.0320
     25 C          64.5002   90.9128   14.8174 C.3     1  UNL1        0.0795
     26 C          63.9628   91.0604   13.4248 C.3     1  UNL1        0.0264
     27 C          64.5106   92.1225   12.5181 C.3     1  UNL1        0.0729
     28 N          65.5958   93.0369   13.0040 N.3     1  UNL1       -0.2689
     29 C          66.1332   92.8893   14.3967 C.3     1  UNL1        0.0729
     30 C          65.5854   91.8273   15.3033 C.3     1  UNL1        0.0264
     31 C          66.1435   94.0989   12.0974 C.3     1  UNL1        0.0992
     32 C          66.8874   93.7126   10.8534 C.ar    1  UNL1       -0.0031
     33 C          67.5599   92.3746   10.7667 C.ar    1  UNL1        0.0178
     34 C          68.3038   91.9883    9.5228 C.ar    1  UNL1        0.0986
     35 N          68.3753   92.9400    8.3656 N.ar    1  UNL1       -0.2423
     36 C          67.7028   94.2781    8.4523 C.ar    1  UNL1        0.0986
     37 C          66.9589   94.6644    9.6963 C.ar    1  UNL1        0.0178
@<TRIPOS>BOND
     1    22    23    1
     2    23    24    1
     3    23    21    1
     4    21    20    1
     5    20    19    1
     6    19     9    1
     7     9    10   ar
     8    10    11    2
     9    10    12   ar
    10    12     1    1
    11     1     2    1
    12     2     3    1
    13     3     4    1
    14     4     5   am
    15     5     6    2
    16     5    25    1
    17    25    26    1
    18    26    27    1
    19    27    28    1
    20    28    31    1
    21    31    32    1
    22    32    33   ar
    23    33    34   ar
    24    34    35   ar
    25    35    36   ar
    26    36    37   ar
    27    28    29    1
    28    29    30    1
    29     4     7    1
    30     7     8    1
    31    12    13   ar
    32    13    14   ar
    33    14    15   ar
    34    15    16   ar
    35    16    17   ar
    36    17    18   ar
    37    18     9   ar
    38     8     1    1
    39    18    13   ar
    40    30    25    1
    41    37    32   ar
@<TRIPOS>MOLECULE
*****
 37 41 0 0 0
SMALL
GASTEIGER

@<TRIPOS>ATOM
      1 C          60.7817   92.3689    3.2719 C.3     1  UNL1        0.0933
      2 C          61.4733   91.6040    4.3612 C.3     1  UNL1        0.0442
      3 C          60.6673   90.8372    5.3674 C.3     1  UNL1        0.0953
      4 N          59.1696   90.8354    5.2843 N.am    1  UNL1       -0.2794
      5 C          58.3635   90.0686    6.2904 C.2     1  UNL1        0.2252
      6 O          56.8658   90.0668    6.2073 O.2     1  UNL1       -0.2749
      7 C          58.4780   91.6003    4.1950 C.3     1  UNL1        0.0953
      8 C          59.2840   92.3670    3.1888 C.3     1  UNL1        0.0442
      9 N          63.4132   93.8631    0.8414 N.ar    1  UNL1       -0.2773
     10 C          63.0084   92.8543    1.8750 C.ar    1  UNL1        0.3316
     11 O          63.8724   91.7568    2.4218 O.2     1  UNL1       -0.2463
     12 N          61.5877   93.1357    2.2657 N.ar    1  UNL1       -0.2817
     13 C          61.1146   94.3184    1.4736 C.ar    1  UNL1        0.0796
     14 C          59.8023   95.0440    1.4402 C.ar    1  UNL1        0.0188
     15 C          59.6182   96.2192    0.5265 C.ar    1  UNL1        0.0016
     16 C          60.7464   96.6688   -0.3538 C.ar    1  UNL1        0.0016
     17 C          62.0588   95.9432   -0.3204 C.ar    1  UNL1        0.0188
     18 C          62.2429   94.7680    0.5933 C.ar    1  UNL1        0.0798
     19 C          64.7533   93.9516    0.1732 C.3     1  UNL1        0.1425
     20 C          65.3838   95.2909   -0.0687 C.3     1  UNL1        0.1666
     21 O          65.7059   95.7267   -1.4674 O.3     1  UNL1       -0.3542
     22 C          64.2016   94.2654   -3.0009 C.3     1  UNL1        0.0320
     23 C          64.6685   95.6160   -2.5451 C.3     1  UNL1        0.1155
     24 C          64.0980   96.8560   -3.1672 C.3     1  UNL1        0.0320
     25 C          59.0552   89.3038    7.3797 C.3     1  UNL1        0.0795
     26 C          59.8283   90.0363    8.4360 C.3     1  UNL1        0.0264
     27 C          60.5200   89.2713    9.5253 C.3     1  UNL1        0.0729
     28 N          60.4386   87.7739    9.5582 N.3     1  UNL1       -0.2689
     29 C          59.6655   87.0414    8.5020 C.3     1  UNL1        0.0729
     30 C          58.9738   87.8063    7.4127 C.3     1  UNL1        0.0264
     31 C          61.1303   87.0091   10.6475 C.3     1  UNL1        0.0992
     32 C          62.0302   85.8599   10.3020 C.ar    1  UNL1       -0.0031
     33 C          62.3934   84.8502   11.3501 C.ar    1  UNL1        0.0178
     34 C          63.2934   83.7010   11.0046 C.ar    1  UNL1        0.0986
     35 N          63.8302   83.5615    9.6109 N.ar    1  UNL1       -0.2423
     36 C          63.4670   84.5712    8.5627 C.ar    1  UNL1        0.0986
     37 C          62.5670   85.7204    8.9083 C.ar    1  UNL1        0.0178
@<TRIPOS>BOND
     1    22    23    1
     2    23    24    1
     3    23    21    1
     4    21    20    1
     5    20    19    1
     6    19     9    1
     7     9    10   ar
     8    10    11    2
     9    10    12   ar
    10    12     1    1
    11     1     2    1
    12     2     3    1
    13     3     4    1
    14     4     5   am
    15     5     6    2
    16     5    25    1
    17    25    26    1
    18    26    27    1
    19    27    28    1
    20    28    31    1
    21    31    32    1
    22    32    33   ar
    23    33    34   ar
    24    34    35   ar
    25    35    36   ar
    26    36    37   ar
    27    28    29    1
    28    29    30    1
    29     4     7    1
    30     7     8    1
    31    12    13   ar
    32    13    14   ar
    33    14    15   ar
    34    15    16   ar
    35    16    17   ar
    36    17    18   ar
    37    18     9   ar
    38     8     1    1
    39    18    13   ar
    40    30    25    1
    41    37    32   ar
@<TRIPOS>MOLECULE
*****
 37 41 0 0 0
SMALL
GASTEIGER

@<TRIPOS>ATOM
      1 C          61.2138   92.4226    2.6501 C.3     1  UNL1        0.0933
      2 C          61.8224   91.6031    3.7493 C.3     1  UNL1        0.0442
      3 C          60.9482   91.0072    4.8126 C.3     1  UNL1        0.0953
      4 N          59.4653   91.2307    4.7767 N.am    1  UNL1       -0.2794
      5 C          58.5911   90.6348    5.8400 C.2     1  UNL1        0.2252
      6 O          57.1083   90.8584    5.8042 O.2     1  UNL1       -0.2749
      7 C          58.8568   92.0502    3.6776 C.3     1  UNL1        0.0953
      8 C          59.7310   92.6461    2.6143 C.3     1  UNL1        0.0442
      9 N          63.0496   93.5619   -0.5743 N.ar    1  UNL1       -0.2773
     10 C          61.9809   92.7643    0.1124 C.ar    1  UNL1        0.3316
     11 O          60.9807   91.8695   -0.5576 O.2     1  UNL1       -0.2463
     12 N          62.0880   93.0185    1.5868 N.ar    1  UNL1       -0.2817
     13 C          63.2229   93.9733    1.8113 C.ar    1  UNL1        0.0796
     14 C          63.7920   94.5803    3.0593 C.ar    1  UNL1        0.0188
     15 C          64.9553   95.5231    2.9717 C.ar    1  UNL1        0.0016
     16 C          65.5495   95.8590    1.6360 C.ar    1  UNL1        0.0016
     17 C          64.9805   95.2520    0.3880 C.ar    1  UNL1        0.0188
     18 C          63.8172   94.3092    0.4756 C.ar    1  UNL1        0.0798
     19 C          63.3057   93.6049   -2.0517 C.3     1  UNL1        0.1425
     20 C          62.4337   94.4416   -2.9401 C.3     1  UNL1        0.1666
     21 O          61.2095   93.8438   -3.5678 O.3     1  UNL1       -0.3542
     22 C          59.6878   95.0361   -1.8320 C.3     1  UNL1        0.0320
     23 C          59.8723   94.0077   -2.9082 C.3     1  UNL1        0.1155
     24 C          58.7195   93.1431   -3.3248 C.3     1  UNL1        0.0320
     25 C          59.1997   89.8154    6.9391 C.3     1  UNL1        0.0795
     26 C          58.9628   88.3351    6.9903 C.3     1  UNL1        0.0264
     27 C          59.5715   87.5157    8.0895 C.3     1  UNL1        0.0729
     28 N          60.4171   88.1766    9.1375 N.3     1  UNL1       -0.2689
     29 C          60.6540   89.6569    9.0863 C.3     1  UNL1        0.0729
     30 C          60.0454   90.4762    7.9871 C.3     1  UNL1        0.0264
     31 C          61.0258   87.3572   10.2365 C.3     1  UNL1        0.0992
     32 C          61.9031   86.1874    9.9022 C.ar    1  UNL1       -0.0031
     33 C          62.3038   85.2193   10.9757 C.ar    1  UNL1        0.0178
     34 C          63.1812   84.0496   10.6413 C.ar    1  UNL1        0.0986
     35 N          63.6579   83.8478    9.2334 N.ar    1  UNL1       -0.2423
     36 C          63.2572   84.8158    8.1600 C.ar    1  UNL1        0.0986
     37 C          62.3798   85.9856    8.4943 C.ar    1  UNL1        0.0178
@<TRIPOS>BOND
     1    22    23    1
     2    23    24    1
     3    23    21    1
     4    21    20    1
     5    20    19    1
     6    19     9    1
     7     9    10   ar
     8    10    11    2
     9    10    12   ar
    10    12     1    1
    11     1     2    1
    12     2     3    1
    13     3     4    1
    14     4     5   am
    15     5     6    2
    16     5    25    1
    17    25    26    1
    18    26    27    1
    19    27    28    1
    20    28    31    1
    21    31    32    1
    22    32    33   ar
    23    33    34   ar
    24    34    35   ar
    25    35    36   ar
    26    36    37   ar
    27    28    29    1
    28    29    30    1
    29     4     7    1
    30     7     8    1
    31    12    13   ar
    32    13    14   ar
    33    14    15   ar
    34    15    16   ar
    35    16    17   ar
    36    17    18   ar
    37    18     9   ar
    38     8     1    1
    39    18    13   ar
    40    30    25    1
    41    37    32   ar
@<TRIPOS>MOLECULE
*****
 37 41 0 0 0
SMALL
GASTEIGER

@<TRIPOS>ATOM
      1 C          61.3260   92.5429    2.6128 C.3     1  UNL1        0.0933
      2 C          61.9173   91.5352    3.5536 C.3     1  UNL1        0.0442
      3 C          61.0605   90.9017    4.6094 C.3     1  UNL1        0.0953
      4 N          59.6125   91.2759    4.7244 N.am    1  UNL1       -0.2794
      5 C          58.7558   90.6424    5.7802 C.2     1  UNL1        0.2252
      6 O          57.3078   91.0166    5.8952 O.2     1  UNL1       -0.2749
      7 C          59.0213   92.2835    3.7836 C.3     1  UNL1        0.0953
      8 C          59.8780   92.9170    2.7278 C.3     1  UNL1        0.0442
      9 N          63.1194   93.7833   -0.5982 N.ar    1  UNL1       -0.2773
     10 C          62.0686   92.9535    0.0780 C.ar    1  UNL1        0.3316
     11 O          61.0776   92.0582   -0.6048 O.2     1  UNL1       -0.2463
     12 N          62.1828   93.1763    1.5570 N.ar    1  UNL1       -0.2817
     13 C          63.3041   94.1438    1.7948 C.ar    1  UNL1        0.0796
     14 C          63.8729   94.7316    3.0522 C.ar    1  UNL1        0.0188
     15 C          65.0205   95.6945    2.9775 C.ar    1  UNL1        0.0016
     16 C          65.5994   96.0697    1.6456 C.ar    1  UNL1        0.0016
     17 C          65.0306   95.4819    0.3882 C.ar    1  UNL1        0.0188
     18 C          63.8830   94.5189    0.4628 C.ar    1  UNL1        0.0798
     19 C          63.3637   93.8635   -2.0760 C.3     1  UNL1        0.1425
     20 C          62.9567   95.0895   -2.8381 C.3     1  UNL1        0.1666
     21 O          61.6389   95.1248   -3.5537 O.3     1  UNL1       -0.3542
     22 C          59.5048   93.6666   -3.2905 C.3     1  UNL1        0.0320
     23 C          60.3758   94.7920   -2.8163 C.3     1  UNL1        0.1155
     24 C          59.9836   95.5845   -1.6047 C.3     1  UNL1        0.0320
     25 C          59.3471   89.6348    6.7209 C.3     1  UNL1        0.0795
     26 C          60.0225   90.0904    7.9804 C.3     1  UNL1        0.0264
     27 C          60.6138   89.0827    8.9211 C.3     1  UNL1        0.0729
     28 N          60.5297   87.6193    8.6023 N.3     1  UNL1       -0.2689
     29 C          59.8543   87.1637    7.3429 C.3     1  UNL1        0.0729
     30 C          59.2630   88.1714    6.4022 C.3     1  UNL1        0.0264
     31 C          61.1210   86.6117    9.5430 C.3     1  UNL1        0.0992
     32 C          61.9411   87.0686   10.7129 C.ar    1  UNL1       -0.0031
     33 C          62.4577   86.0676   11.7034 C.ar    1  UNL1        0.0178
     34 C          63.2777   86.5245   12.8734 C.ar    1  UNL1        0.0986
     35 N          63.5812   87.9825   13.0528 N.ar    1  UNL1       -0.2423
     36 C          63.0646   88.9835   12.0623 C.ar    1  UNL1        0.0986
     37 C          62.2446   88.5266   10.8924 C.ar    1  UNL1        0.0178
@<TRIPOS>BOND
     1    22    23    1
     2    23    24    1
     3    23    21    1
     4    21    20    1
     5    20    19    1
     6    19     9    1
     7     9    10   ar
     8    10    11    2
     9    10    12   ar
    10    12     1    1
    11     1     2    1
    12     2     3    1
    13     3     4    1
    14     4     5   am
    15     5     6    2
    16     5    25    1
    17    25    26    1
    18    26    27    1
    19    27    28    1
    20    28    31    1
    21    31    32    1
    22    32    33   ar
    23    33    34   ar
    24    34    35   ar
    25    35    36   ar
    26    36    37   ar
    27    28    29    1
    28    29    30    1
    29     4     7    1
    30     7     8    1
    31    12    13   ar
    32    13    14   ar
    33    14    15   ar
    34    15    16   ar
    35    16    17   ar
    36    17    18   ar
    37    18     9   ar
    38     8     1    1
    39    18    13   ar
    40    30    25    1
    41    37    32   ar
@<TRIPOS>MOLECULE
*****
 37 41 0 0 0
SMALL
GASTEIGER

@<TRIPOS>ATOM
      1 C          61.2977   92.5925    2.5740 C.3     1  UNL1        0.0933
      2 C          61.8901   91.5699    3.4979 C.3     1  UNL1        0.0442
      3 C          61.0396   90.9343    4.5575 C.3     1  UNL1        0.0953
      4 N          59.5968   91.3213    4.6933 N.am    1  UNL1       -0.2794
      5 C          58.7463   90.6858    5.7529 C.2     1  UNL1        0.2252
      6 O          57.3035   91.0728    5.8887 O.2     1  UNL1       -0.2749
      7 C          59.0044   92.3438    3.7694 C.3     1  UNL1        0.0953
      8 C          59.8549   92.9794    2.7098 C.3     1  UNL1        0.0442
      9 N          63.0578   93.8563   -0.6462 N.ar    1  UNL1       -0.2773
     10 C          62.0023   93.0358    0.0339 C.ar    1  UNL1        0.3316
     11 O          60.9803   92.1743   -0.6469 O.2     1  UNL1       -0.2463
     12 N          62.1482   93.2280    1.5144 N.ar    1  UNL1       -0.2817
     13 C          63.2938   94.1673    1.7492 C.ar    1  UNL1        0.0796
     14 C          63.8977   94.7192    3.0065 C.ar    1  UNL1        0.0188
     15 C          65.0638   95.6594    2.9284 C.ar    1  UNL1        0.0016
     16 C          65.6260   96.0478    1.5931 C.ar    1  UNL1        0.0016
     17 C          65.0221   95.4959    0.3358 C.ar    1  UNL1        0.0188
     18 C          63.8560   94.5557    0.4139 C.ar    1  UNL1        0.0798
     19 C          63.2767   93.9595   -2.1265 C.3     1  UNL1        0.1425
     20 C          63.7694   92.7703   -2.8965 C.3     1  UNL1        0.1666
     21 O          63.4471   92.6352   -4.3553 O.3     1  UNL1       -0.3542
     22 C          64.9867   91.8625   -6.3001 C.3     1  UNL1        0.0320
     23 C          64.4922   92.9440   -5.3860 C.3     1  UNL1        0.1155
     24 C          65.0428   94.3344   -5.5027 C.3     1  UNL1        0.0320
     25 C          59.3387   89.6633    6.6767 C.3     1  UNL1        0.0795
     26 C          60.0219   90.0992    7.9389 C.3     1  UNL1        0.0264
     27 C          60.6144   89.0765    8.8628 C.3     1  UNL1        0.0729
     28 N          60.5236   87.6180    8.5243 N.3     1  UNL1       -0.2689
     29 C          59.8404   87.1821    7.2621 C.3     1  UNL1        0.0729
     30 C          59.2480   88.2047    6.3383 C.3     1  UNL1        0.0264
     31 C          61.1161   86.5955    9.4481 C.3     1  UNL1        0.0992
     32 C          61.9242   87.0342   10.6332 C.ar    1  UNL1       -0.0031
     33 C          62.3911   86.0233   11.6383 C.ar    1  UNL1        0.0178
     34 C          63.1992   86.4619   12.8234 C.ar    1  UNL1        0.0986
     35 N          63.5405   87.9114   13.0034 N.ar    1  UNL1       -0.2423
     36 C          63.0736   88.9223   11.9984 C.ar    1  UNL1        0.0986
     37 C          62.2654   88.4837   10.8132 C.ar    1  UNL1        0.0178
@<TRIPOS>BOND
     1    22    23    1
     2    23    24    1
     3    23    21    1
     4    21    20    1
     5    20    19    1
     6    19     9    1
     7     9    10   ar
     8    10    11    2
     9    10    12   ar
    10    12     1    1
    11     1     2    1
    12     2     3    1
    13     3     4    1
    14     4     5   am
    15     5     6    2
    16     5    25    1
    17    25    26    1
    18    26    27    1
    19    27    28    1
    20    28    31    1
    21    31    32    1
    22    32    33   ar
    23    33    34   ar
    24    34    35   ar
    25    35    36   ar
    26    36    37   ar
    27    28    29    1
    28    29    30    1
    29     4     7    1
    30     7     8    1
    31    12    13   ar
    32    13    14   ar
    33    14    15   ar
    34    15    16   ar
    35    16    17   ar
    36    17    18   ar
    37    18     9   ar
    38     8     1    1
    39    18    13   ar
    40    30    25    1
    41    37    32   ar
@<TRIPOS>MOLECULE
*****
 37 41 0 0 0
SMALL
GASTEIGER

@<TRIPOS>ATOM
      1 C          61.1923   92.4181    2.6408 C.3     1  UNL1        0.0933
      2 C          61.8037   91.5995    3.7392 C.3     1  UNL1        0.0442
      3 C          60.9323   91.0055    4.8059 C.3     1  UNL1        0.0953
      4 N          59.4495   91.2302    4.7744 N.am    1  UNL1       -0.2794
      5 C          58.5781   90.6362    5.8411 C.2     1  UNL1        0.2252
      6 O          57.0954   90.8609    5.8096 O.2     1  UNL1       -0.2749
      7 C          58.8382   92.0487    3.6761 C.3     1  UNL1        0.0953
      8 C          59.7096   92.6426    2.6094 C.3     1  UNL1        0.0442
      9 N          63.0230   93.5470   -0.5901 N.ar    1  UNL1       -0.2773
     10 C          61.9584   92.7479    0.1013 C.ar    1  UNL1        0.3316
     11 O          60.9633   91.8435   -0.5634 O.2     1  UNL1       -0.2463
     12 N          62.0637   93.0120    1.5741 N.ar    1  UNL1       -0.2817
     13 C          63.1933   93.9743    1.7929 C.ar    1  UNL1        0.0796
     14 C          63.7586   94.5922    3.0373 C.ar    1  UNL1        0.0188
     15 C          64.9169   95.5407    2.9441 C.ar    1  UNL1        0.0016
     16 C          65.5098   95.8713    1.6066 C.ar    1  UNL1        0.0016
     17 C          64.9445   95.2535    0.3622 C.ar    1  UNL1        0.0188
     18 C          63.7862   94.3049    0.4553 C.ar    1  UNL1        0.0798
     19 C          63.2794   93.5820   -2.0676 C.3     1  UNL1        0.1425
     20 C          62.2184   94.0842   -3.0013 C.3     1  UNL1        0.1666
     21 O          62.5165   94.2358   -4.4636 O.3     1  UNL1       -0.3542
     22 C          64.9558   94.8226   -5.1385 C.3     1  UNL1        0.0320
     23 C          63.8514   93.8165   -5.0042 C.3     1  UNL1        0.1155
     24 C          64.0819   92.3911   -5.4106 C.3     1  UNL1        0.0320
     25 C          59.1896   89.8177    6.9393 C.3     1  UNL1        0.0795
     26 C          58.9386   88.3402    7.0023 C.3     1  UNL1        0.0264
     27 C          59.5501   87.5217    8.1006 C.3     1  UNL1        0.0729
     28 N          60.4125   88.1807    9.1359 N.3     1  UNL1       -0.2689
     29 C          60.6635   89.6582    9.0730 C.3     1  UNL1        0.0729
     30 C          60.0521   90.4767    7.9747 C.3     1  UNL1        0.0264
     31 C          61.0240   87.3622   10.2341 C.3     1  UNL1        0.0992
     32 C          61.9000   86.1918    9.8985 C.ar    1  UNL1       -0.0031
     33 C          62.3262   85.2403   10.9770 C.ar    1  UNL1        0.0178
     34 C          63.2022   84.0699   10.6413 C.ar    1  UNL1        0.0986
     35 N          63.6521   83.8509    9.2273 N.ar    1  UNL1       -0.2423
     36 C          63.2259   84.8024    8.1488 C.ar    1  UNL1        0.0986
     37 C          62.3499   85.9728    8.4844 C.ar    1  UNL1        0.0178
@<TRIPOS>BOND
     1    22    23    1
     2    23    24    1
     3    23    21    1
     4    21    20    1
     5    20    19    1
     6    19     9    1
     7     9    10   ar
     8    10    11    2
     9    10    12   ar
    10    12     1    1
    11     1     2    1
    12     2     3    1
    13     3     4    1
    14     4     5   am
    15     5     6    2
    16     5    25    1
    17    25    26    1
    18    26    27    1
    19    27    28    1
    20    28    31    1
    21    31    32    1
    22    32    33   ar
    23    33    34   ar
    24    34    35   ar
    25    35    36   ar
    26    36    37   ar
    27    28    29    1
    28    29    30    1
    29     4     7    1
    30     7     8    1
    31    12    13   ar
    32    13    14   ar
    33    14    15   ar
    34    15    16   ar
    35    16    17   ar
    36    17    18   ar
    37    18     9   ar
    38     8     1    1
    39    18    13   ar
    40    30    25    1
    41    37    32   ar
