@<TRIPOS>MOLECULE
*****
 35 39 0 0 0
SMALL
GASTEIGER

@<TRIPOS>ATOM
      1 C          59.7966   88.8456    7.5346 C.ar    1  UNL1        0.0223
      2 C          59.5800   87.3658    7.4203 C.ar    1  UNL1        0.0989
      3 N          60.1852   86.4388    8.4324 N.ar    1  UNL1       -0.2437
      4 C          61.0070   86.9917    9.5588 C.ar    1  UNL1        0.0844
      5 C          61.5161   85.9001   10.4529 C.ar    1  UNL1        0.0192
      6 C          62.3676   86.0188   11.6821 C.ar    1  UNL1        0.0016
      7 C          62.9201   87.2584   12.3209 C.ar    1  UNL1        0.0031
      8 C          63.7255   86.9324   13.5436 C.ar    1  UNL1       -0.0002
      9 C          64.3686   88.0334   14.3336 C.ar    1  UNL1       -0.0025
     10 C          64.2062   89.4605   13.9010 C.ar    1  UNL1        0.0030
     11 C          63.4009   89.7865   12.6783 C.ar    1  UNL1        0.0007
     12 C          62.7578   88.6854   11.8882 C.ar    1  UNL1        0.0387
     13 C          62.0027   89.2254   10.7098 C.ar    1  UNL1        0.1970
     14 O          62.0306   90.7162   10.5467 O.2     1  UNL1       -0.2865
     15 C          61.2236   88.4715    9.6732 C.ar    1  UNL1        0.0566
     16 C          60.6184   89.3985    8.6611 C.ar    1  UNL1        0.0063
     17 C          59.2634   92.4089    3.6746 C.3     1  UNL1        0.1538
     18 N          58.9463   91.4105    4.7482 N.ar    1  UNL1       -0.2473
     19 C          59.9459   90.6595    5.5768 C.ar    1  UNL1        0.0967
     20 C          59.1913   89.7727    6.5225 C.ar    1  UNL1        0.0411
     21 C          57.7253   89.9757    6.2783 C.ar    1  UNL1        0.1217
     22 N          57.5739   90.9879    5.1818 N.ar    1  UNL1       -0.1676
     23 C          64.8493   90.5616   14.6910 C.3     1  UNL1        0.1952
     24 S          65.7711   91.5314   14.0129 S.O2    1  UNL1        0.0453
     25 O          66.9543   90.7899   14.5610 O.2     1  UNL1       -0.1572
     26 O          64.5879   92.2729   13.4649 O.2     1  UNL1       -0.1572
     27 N          66.6929   92.5012   13.3348 N.3     1  UNL1       -0.1769
     28 H          67.1832   91.9816   12.6068 H       1  UNL1        0.1489
     29 C          66.1385   93.7354   12.6872 C.3     1  UNL1        0.1365
     30 C          66.6134   94.1453   11.3247 C.ar    1  UNL1        0.0766
     31 C          66.2399   95.4893   10.7732 C.ar    1  UNL1        0.0162
     32 C          66.7148   95.8992    9.4107 C.ar    1  UNL1        0.0028
     33 C          67.5633   94.9651    8.5997 C.ar    1  UNL1        0.0207
     34 C          67.9368   93.6211    9.1513 C.ar    1  UNL1        0.0985
     35 N          67.4619   93.2112   10.5138 N.ar    1  UNL1       -0.2467
@<TRIPOS>BOND
     1    17    18    1
     2    18    19   ar
     3    19    20   ar
     4    20     1    1
     5     1     2   ar
     6     2     3   ar
     7     3     4   ar
     8     4     5   ar
     9     5     6   ar
    10     6     7   ar
    11     7     8   ar
    12     8     9   ar
    13     9    10   ar
    14    10    23    1
    15    23    24    1
    16    24    25    2
    17    24    26    2
    18    24    27    1
    19    27    29    1
    20    29    30    1
    21    30    31   ar
    22    31    32   ar
    23    32    33   ar
    24    33    34   ar
    25    34    35   ar
    26    10    11   ar
    27    11    12   ar
    28    12    13   ar
    29    13    14    2
    30    13    15   ar
    31    15    16   ar
    32    20    21   ar
    33    21    22   ar
    34    22    18   ar
    35    16     1   ar
    36    15     4   ar
    37    12     7   ar
    38    35    30   ar
    39    27    28    1
@<TRIPOS>MOLECULE
*****
 35 39 0 0 0
SMALL
GASTEIGER

@<TRIPOS>ATOM
      1 C          63.9483   89.5149   13.5553 C.ar    1  UNL1        0.0223
      2 C          64.2122   88.0964   13.9652 C.ar    1  UNL1        0.0989
      3 N          63.5978   86.9662   13.1937 N.ar    1  UNL1       -0.2437
      4 C          62.7196   87.2545   12.0124 C.ar    1  UNL1        0.0844
      5 C          62.2105   85.9900   11.3865 C.ar    1  UNL1        0.0192
      6 C          61.3116   85.8317   10.1960 C.ar    1  UNL1        0.0016
      7 C          60.7000   86.8989    9.3376 C.ar    1  UNL1        0.0031
      8 C          59.8604   86.3081    8.2439 C.ar    1  UNL1       -0.0002
      9 C          59.1570   87.2063    7.2701 C.ar    1  UNL1       -0.0025
     10 C          59.2931   88.6953    7.3899 C.ar    1  UNL1        0.0030
     11 C          60.1327   89.2861    8.4836 C.ar    1  UNL1        0.0007
     12 C          60.8361   88.3879    9.4574 C.ar    1  UNL1        0.0387
     13 C          61.6175   89.1775   10.4654 C.ar    1  UNL1        0.1970
     14 O          61.5520   90.6686   10.3166 O.2     1  UNL1       -0.2865
     15 C          62.4558   88.6730   11.6025 C.ar    1  UNL1        0.0566
     16 C          63.0701   89.8032   12.3739 C.ar    1  UNL1        0.0063
     17 C          67.0969   93.5193   14.9455 C.3     1  UNL1        0.1538
     18 N          66.0099   92.4858   14.9657 N.ar    1  UNL1       -0.2473
     19 C          65.7358   91.4735   13.8934 C.ar    1  UNL1        0.0967
     20 C          64.5626   90.6452   14.3267 C.ar    1  UNL1        0.0411
     21 C          64.1117   91.1457   15.6669 C.ar    1  UNL1        0.1217
     22 N          65.0061   92.2833   16.0618 N.ar    1  UNL1       -0.1676
     23 C          58.5896   89.5936    6.4161 C.3     1  UNL1        0.1952
     24 S          59.3624   90.6375    5.6657 S.O2    1  UNL1        0.0453
     25 O          60.5857   89.7710    5.7202 O.2     1  UNL1       -0.1572
     26 O          58.1392   91.5040    5.6111 O.2     1  UNL1       -0.1572
     27 N          60.1352   91.6813    4.9152 N.3     1  UNL1       -0.1769
     28 H          60.9153   91.2029    4.4645 H       1  UNL1        0.1489
     29 C          59.4579   92.4985    3.8553 C.3     1  UNL1        0.1365
     30 C          60.1561   92.7676    2.5552 C.ar    1  UNL1        0.0766
     31 C          61.6521   92.6919    2.4776 C.ar    1  UNL1        0.0162
     32 C          62.3503   92.9610    1.1775 C.ar    1  UNL1        0.0028
     33 C          61.5522   93.3058   -0.0450 C.ar    1  UNL1        0.0207
     34 C          60.0562   93.3816    0.0327 C.ar    1  UNL1        0.0985
     35 N          59.3580   93.1125    1.3328 N.ar    1  UNL1       -0.2467
@<TRIPOS>BOND
     1    17    18    1
     2    18    19   ar
     3    19    20   ar
     4    20     1    1
     5     1     2   ar
     6     2     3   ar
     7     3     4   ar
     8     4     5   ar
     9     5     6   ar
    10     6     7   ar
    11     7     8   ar
    12     8     9   ar
    13     9    10   ar
    14    10    23    1
    15    23    24    1
    16    24    25    2
    17    24    26    2
    18    24    27    1
    19    27    29    1
    20    29    30    1
    21    30    31   ar
    22    31    32   ar
    23    32    33   ar
    24    33    34   ar
    25    34    35   ar
    26    10    11   ar
    27    11    12   ar
    28    12    13   ar
    29    13    14    2
    30    13    15   ar
    31    15    16   ar
    32    20    21   ar
    33    21    22   ar
    34    22    18   ar
    35    16     1   ar
    36    15     4   ar
    37    12     7   ar
    38    35    30   ar
    39    27    28    1
@<TRIPOS>MOLECULE
*****
 35 39 0 0 0
SMALL
GASTEIGER

@<TRIPOS>ATOM
      1 C          63.1099   83.2720   13.4770 C.ar    1  UNL1        0.0223
      2 C          62.8161   82.7928   14.8677 C.ar    1  UNL1        0.0989
      3 N          62.7754   83.7702   16.0048 N.ar    1  UNL1       -0.2437
      4 C          63.0284   85.2268   15.7512 C.ar    1  UNL1        0.0844
      5 C          62.9411   86.0267   17.0171 C.ar    1  UNL1        0.0192
      6 C          63.1259   87.5034   17.2050 C.ar    1  UNL1        0.0016
      7 C          63.4438   88.5448   16.1733 C.ar    1  UNL1        0.0031
      8 C          63.5441   89.9104   16.7860 C.ar    1  UNL1       -0.0002
      9 C          63.8558   91.0979   15.9243 C.ar    1  UNL1       -0.0025
     10 C          64.0673   90.9199   14.4500 C.ar    1  UNL1        0.0030
     11 C          63.9670   89.5545   13.8373 C.ar    1  UNL1        0.0007
     12 C          63.6553   88.3669   14.6990 C.ar    1  UNL1        0.0387
     13 C          63.6011   87.1034   13.8922 C.ar    1  UNL1        0.1970
     14 O          63.8603   87.2580   12.4229 O.2     1  UNL1       -0.2865
     15 C          63.3222   85.7060   14.3605 C.ar    1  UNL1        0.0566
     16 C          63.3629   84.7286   13.2234 C.ar    1  UNL1        0.0063
     17 C          62.7095   78.8218   10.6634 C.3     1  UNL1        0.1538
     18 N          62.9666   80.2491   11.0466 N.ar    1  UNL1       -0.2473
     19 C          62.7753   80.8440   12.4102 C.ar    1  UNL1        0.0967
     20 C          63.1506   82.2946   12.3399 C.ar    1  UNL1        0.0411
     21 C          63.5738   82.5962   10.9328 C.ar    1  UNL1        0.1217
     22 N          63.4600   81.3320   10.1335 N.ar    1  UNL1       -0.1676
     23 C          64.3791   92.1075   13.5882 C.3     1  UNL1        0.1952
     24 S          65.7082   92.2064   12.9001 S.O2    1  UNL1        0.0453
     25 O          66.3754   92.4416   14.2228 O.2     1  UNL1       -0.1572
     26 O          65.0410   91.9713   11.5773 O.2     1  UNL1       -0.1572
     27 N          67.0374   92.3054   12.2119 N.3     1  UNL1       -0.1769
     28 H          67.5129   91.4153   12.3605 H       1  UNL1        0.1489
     29 C          67.1009   92.5899   10.7405 C.3     1  UNL1        0.1365
     30 C          67.1092   94.0076   10.2504 C.ar    1  UNL1        0.0766
     31 C          67.5444   94.3138    8.8480 C.ar    1  UNL1        0.0162
     32 C          67.5527   95.7314    8.3579 C.ar    1  UNL1        0.0028
     33 C          67.1258   96.8429    9.2703 C.ar    1  UNL1        0.0207
     34 C          66.6906   96.5367   10.6728 C.ar    1  UNL1        0.0985
     35 N          66.6823   95.1190   11.1629 N.ar    1  UNL1       -0.2467
@<TRIPOS>BOND
     1    17    18    1
     2    18    19   ar
     3    19    20   ar
     4    20     1    1
     5     1     2   ar
     6     2     3   ar
     7     3     4   ar
     8     4     5   ar
     9     5     6   ar
    10     6     7   ar
    11     7     8   ar
    12     8     9   ar
    13     9    10   ar
    14    10    23    1
    15    23    24    1
    16    24    25    2
    17    24    26    2
    18    24    27    1
    19    27    29    1
    20    29    30    1
    21    30    31   ar
    22    31    32   ar
    23    32    33   ar
    24    33    34   ar
    25    34    35   ar
    26    10    11   ar
    27    11    12   ar
    28    12    13   ar
    29    13    14    2
    30    13    15   ar
    31    15    16   ar
    32    20    21   ar
    33    21    22   ar
    34    22    18   ar
    35    16     1   ar
    36    15     4   ar
    37    12     7   ar
    38    35    30   ar
    39    27    28    1
@<TRIPOS>MOLECULE
*****
 35 39 0 0 0
SMALL
GASTEIGER

@<TRIPOS>ATOM
      1 C          63.3235   82.1421   12.9005 C.ar    1  UNL1        0.0223
      2 C          63.5537   81.7594   14.3325 C.ar    1  UNL1        0.0989
      3 N          63.7463   82.8239   15.3715 N.ar    1  UNL1       -0.2437
      4 C          63.7087   84.2711   14.9787 C.ar    1  UNL1        0.0844
      5 C          63.9222   85.1662   16.1632 C.ar    1  UNL1        0.0192
      6 C          63.9582   86.6652   16.2083 C.ar    1  UNL1        0.0016
      7 C          63.7896   87.6390   15.0800 C.ar    1  UNL1        0.0031
      8 C          63.8961   89.0565   15.5591 C.ar    1  UNL1       -0.0002
      9 C          63.7563   90.1895   14.5862 C.ar    1  UNL1       -0.0025
     10 C          63.5101   89.9051   13.1341 C.ar    1  UNL1        0.0030
     11 C          63.4037   88.4877   12.6550 C.ar    1  UNL1        0.0007
     12 C          63.5435   87.3546   13.6280 C.ar    1  UNL1        0.0387
     13 C          63.4050   86.0260   12.9455 C.ar    1  UNL1        0.1970
     14 O          63.1607   86.0764   11.4665 O.2     1  UNL1       -0.2865
     15 C          63.4785   84.6537   13.5467 C.ar    1  UNL1        0.0566
     16 C          63.2860   83.5892   12.5076 C.ar    1  UNL1        0.0063
     17 C          62.5004   77.4620   10.5983 C.3     1  UNL1        0.1538
     18 N          62.7526   78.9263   10.8032 N.ar    1  UNL1       -0.2473
     19 C          62.8851   79.6217   12.1256 C.ar    1  UNL1        0.0967
     20 C          63.1310   81.0776   11.8613 C.ar    1  UNL1        0.0411
     21 C          63.1504   81.2821   10.3755 C.ar    1  UNL1        0.1217
     22 N          62.9166   79.9526    9.7215 N.ar    1  UNL1       -0.1676
     23 C          63.3704   91.0382   12.1610 C.3     1  UNL1        0.1952
     24 S          62.5681   90.8550   10.9069 S.O2    1  UNL1        0.0453
     25 O          63.7547   91.2683   10.0876 O.2     1  UNL1       -0.1572
     26 O          61.3816   90.4417   11.7262 O.2     1  UNL1       -0.1572
     27 N          61.7659   90.6718    9.6527 N.3     1  UNL1       -0.1769
     28 H          62.3691   90.1916    8.9849 H       1  UNL1        0.1489
     29 C          60.4735   89.9115    9.6934 C.3     1  UNL1        0.1365
     30 C          60.3683   88.5746    9.0214 C.ar    1  UNL1        0.0766
     31 C          61.4331   87.5405    9.2378 C.ar    1  UNL1        0.0162
     32 C          61.3280   86.2036    8.5658 C.ar    1  UNL1        0.0028
     33 C          60.1579   85.9008    7.6773 C.ar    1  UNL1        0.0207
     34 C          59.0931   86.9349    7.4609 C.ar    1  UNL1        0.0985
     35 N          59.1983   88.2719    8.1329 N.ar    1  UNL1       -0.2467
@<TRIPOS>BOND
     1    17    18    1
     2    18    19   ar
     3    19    20   ar
     4    20     1    1
     5     1     2   ar
     6     2     3   ar
     7     3     4   ar
     8     4     5   ar
     9     5     6   ar
    10     6     7   ar
    11     7     8   ar
    12     8     9   ar
    13     9    10   ar
    14    10    23    1
    15    23    24    1
    16    24    25    2
    17    24    26    2
    18    24    27    1
    19    27    29    1
    20    29    30    1
    21    30    31   ar
    22    31    32   ar
    23    32    33   ar
    24    33    34   ar
    25    34    35   ar
    26    10    11   ar
    27    11    12   ar
    28    12    13   ar
    29    13    14    2
    30    13    15   ar
    31    15    16   ar
    32    20    21   ar
    33    21    22   ar
    34    22    18   ar
    35    16     1   ar
    36    15     4   ar
    37    12     7   ar
    38    35    30   ar
    39    27    28    1
@<TRIPOS>MOLECULE
*****
 35 39 0 0 0
SMALL
GASTEIGER

@<TRIPOS>ATOM
      1 C          62.6438   83.9096   11.1797 C.ar    1  UNL1        0.0223
      2 C          62.2264   84.3195    9.7985 C.ar    1  UNL1        0.0989
      3 N          62.1799   85.7726    9.4293 N.ar    1  UNL1       -0.2437
      4 C          62.5508   86.8158   10.4414 C.ar    1  UNL1        0.0844
      5 C          62.4369   88.1982    9.8704 C.ar    1  UNL1        0.0192
      6 C          62.7123   89.5121   10.5395 C.ar    1  UNL1        0.0016
      7 C          63.1696   89.7681   11.9450 C.ar    1  UNL1        0.0031
      8 C          63.3251   91.2360   12.2119 C.ar    1  UNL1       -0.0002
      9 C          63.7754   91.7092   13.5621 C.ar    1  UNL1       -0.0025
     10 C          64.0703   90.7145   14.6455 C.ar    1  UNL1        0.0030
     11 C          63.9147   89.2467   14.3787 C.ar    1  UNL1        0.0007
     12 C          63.4644   88.7734   13.0284 C.ar    1  UNL1        0.0387
     13 C          63.3747   87.2771   12.9739 C.ar    1  UNL1        0.1970
     14 O          63.7400   86.5568   14.2379 O.2     1  UNL1       -0.2865
     15 C          62.9681   86.4059   11.8225 C.ar    1  UNL1        0.0566
     16 C          63.0147   84.9528   12.1917 C.ar    1  UNL1        0.0063
     17 C          62.2361   79.4049   13.9042 C.3     1  UNL1        0.1538
     18 N          62.5029   80.3859   12.8013 N.ar    1  UNL1       -0.2473
     19 C          62.2986   81.8702   12.8728 C.ar    1  UNL1        0.0967
     20 C          62.6904   82.4565   11.5489 C.ar    1  UNL1        0.0411
     21 C          63.1369   81.3345   10.6590 C.ar    1  UNL1        0.1217
     22 N          63.0210   80.0548   11.4330 N.ar    1  UNL1       -0.1676
     23 C          64.5206   91.1877   15.9959 C.3     1  UNL1        0.1952
     24 S          65.6009   92.2225   16.1060 S.O2    1  UNL1        0.0453
     25 O          66.5480   91.3105   15.3839 O.2     1  UNL1       -0.1572
     26 O          64.6539   93.1344   16.8282 O.2     1  UNL1       -0.1572
     27 N          66.6813   93.2573   16.2162 N.3     1  UNL1       -0.1769
     28 H          67.2340   93.0193   17.0397 H       1  UNL1        0.1489
     29 C          67.6490   93.4542   15.0872 C.3     1  UNL1        0.1365
     30 C          67.1515   93.5044   13.6730 C.ar    1  UNL1        0.0766
     31 C          67.3200   92.3140   12.7759 C.ar    1  UNL1        0.0162
     32 C          66.8225   92.3642   11.3618 C.ar    1  UNL1        0.0028
     33 C          66.1564   93.6047   10.8446 C.ar    1  UNL1        0.0207
     34 C          65.9879   94.7951   11.7417 C.ar    1  UNL1        0.0985
     35 N          66.4854   94.7449   13.1559 N.ar    1  UNL1       -0.2467
@<TRIPOS>BOND
     1    17    18    1
     2    18    19   ar
     3    19    20   ar
     4    20     1    1
     5     1     2   ar
     6     2     3   ar
     7     3     4   ar
     8     4     5   ar
     9     5     6   ar
    10     6     7   ar
    11     7     8   ar
    12     8     9   ar
    13     9    10   ar
    14    10    23    1
    15    23    24    1
    16    24    25    2
    17    24    26    2
    18    24    27    1
    19    27    29    1
    20    29    30    1
    21    30    31   ar
    22    31    32   ar
    23    32    33   ar
    24    33    34   ar
    25    34    35   ar
    26    10    11   ar
    27    11    12   ar
    28    12    13   ar
    29    13    14    2
    30    13    15   ar
    31    15    16   ar
    32    20    21   ar
    33    21    22   ar
    34    22    18   ar
    35    16     1   ar
    36    15     4   ar
    37    12     7   ar
    38    35    30   ar
    39    27    28    1
@<TRIPOS>MOLECULE
*****
 35 39 0 0 0
SMALL
GASTEIGER

@<TRIPOS>ATOM
      1 C          63.1563   82.1905   12.9363 C.ar    1  UNL1        0.0223
      2 C          63.2103   81.7781   14.3775 C.ar    1  UNL1        0.0989
      3 N          63.3255   82.8188   15.4515 N.ar    1  UNL1       -0.2437
      4 C          63.3866   84.2719   15.0845 C.ar    1  UNL1        0.0844
      5 C          63.4998   85.1404   16.3022 C.ar    1  UNL1        0.0192
      6 C          63.5871   86.6359   16.3795 C.ar    1  UNL1        0.0016
      7 C          63.5826   87.6321   15.2582 C.ar    1  UNL1        0.0031
      8 C          63.6881   89.0371   15.7729 C.ar    1  UNL1       -0.0002
      9 C          63.7008   90.1889   14.8122 C.ar    1  UNL1       -0.0025
     10 C          63.6080   89.9358   13.3366 C.ar    1  UNL1        0.0030
     11 C          63.5025   88.5309   12.8218 C.ar    1  UNL1        0.0007
     12 C          63.4898   87.3790   13.7826 C.ar    1  UNL1        0.0387
     13 C          63.3785   86.0671   13.0639 C.ar    1  UNL1        0.1970
     14 O          63.3032   86.1488   11.5681 O.2     1  UNL1       -0.2865
     15 C          63.3326   84.6843   13.6433 C.ar    1  UNL1        0.0566
     16 C          63.2175   83.6436   12.5693 C.ar    1  UNL1        0.0063
     17 C          62.5177   77.5624   10.4759 C.3     1  UNL1        0.1538
     18 N          62.7477   79.0225   10.7313 N.ar    1  UNL1       -0.2473
     19 C          62.7853   79.6872   12.0754 C.ar    1  UNL1        0.0967
     20 C          63.0412   81.1498   11.8622 C.ar    1  UNL1        0.0411
     21 C          63.1618   81.3889   10.3863 C.ar    1  UNL1        0.1217
     22 N          62.9804   80.0742    9.6873 N.ar    1  UNL1       -0.1676
     23 C          63.6207   91.0876   12.3757 C.3     1  UNL1        0.1952
     24 S          64.8220   91.9820   12.2930 S.O2    1  UNL1        0.0453
     25 O          64.7013   92.0058   10.7980 O.2     1  UNL1       -0.1572
     26 O          64.9428   91.9583   13.7880 O.2     1  UNL1       -0.1572
     27 N          66.0234   92.8764   12.2103 N.3     1  UNL1       -0.1769
     28 H          66.6675   92.5727   12.9406 H       1  UNL1        0.1489
     29 C          66.8154   92.9528   10.9387 C.3     1  UNL1        0.1365
     30 C          66.9220   94.2531   10.1984 C.ar    1  UNL1        0.0766
     31 C          67.4835   94.2805    8.8078 C.ar    1  UNL1        0.0162
     32 C          67.5901   95.5807    8.0675 C.ar    1  UNL1        0.0028
     33 C          67.1351   96.8535    8.7179 C.ar    1  UNL1        0.0207
     34 C          66.5736   96.8261   10.1086 C.ar    1  UNL1        0.0985
     35 N          66.4670   95.5258   10.8489 N.ar    1  UNL1       -0.2467
@<TRIPOS>BOND
     1    17    18    1
     2    18    19   ar
     3    19    20   ar
     4    20     1    1
     5     1     2   ar
     6     2     3   ar
     7     3     4   ar
     8     4     5   ar
     9     5     6   ar
    10     6     7   ar
    11     7     8   ar
    12     8     9   ar
    13     9    10   ar
    14    10    23    1
    15    23    24    1
    16    24    25    2
    17    24    26    2
    18    24    27    1
    19    27    29    1
    20    29    30    1
    21    30    31   ar
    22    31    32   ar
    23    32    33   ar
    24    33    34   ar
    25    34    35   ar
    26    10    11   ar
    27    11    12   ar
    28    12    13   ar
    29    13    14    2
    30    13    15   ar
    31    15    16   ar
    32    20    21   ar
    33    21    22   ar
    34    22    18   ar
    35    16     1   ar
    36    15     4   ar
    37    12     7   ar
    38    35    30   ar
    39    27    28    1
