@<TRIPOS>MOLECULE
*****
 32 35 0 0 0
SMALL
GASTEIGER

@<TRIPOS>ATOM
      1 C          60.3491   88.6230    9.5784 C.3     1  UNL1        0.0315
      2 C          61.4358   88.6271   10.6123 C.3     1  UNL1        0.1544
      3 C          62.2123   89.8258   11.0705 C.2     1  UNL1        0.2544
      4 O          62.0385   91.2310   10.5752 O.2     1  UNL1       -0.2723
      5 N          63.1933   89.3726   12.1110 N.am    1  UNL1       -0.1910
      6 C          63.0229   87.8938   12.2958 C.2     1  UNL1        0.3174
      7 O          63.8020   87.0279   13.2409 O.2     1  UNL1       -0.2516
      8 N          61.9367   87.4330   11.3696 N.am    1  UNL1       -0.2526
      9 C          64.1726   90.2451   12.8388 C.ar    1  UNL1        0.0623
     10 C          64.7248   91.4704   12.1727 C.ar    1  UNL1        0.0167
     11 C          65.7041   92.3430   12.9005 C.ar    1  UNL1        0.0199
     12 C          66.1313   91.9900   14.2945 C.ar    1  UNL1        0.1143
     13 C          65.5791   90.7647   14.9605 C.ar    1  UNL1        0.0199
     14 C          64.5998   89.8922   14.2327 C.ar    1  UNL1        0.0167
     15 S          67.1106   92.8625   15.0223 S.O2    1  UNL1        0.0920
     16 O          67.9375   92.9743   13.7758 O.2     1  UNL1       -0.1612
     17 O          66.2838   92.7508   16.2688 O.2     1  UNL1       -0.1612
     18 C          68.0899   93.7349   15.7501 C.3     1  UNL1        0.5262
     19 F          67.6443   94.9137   14.9366 F       1  UNL1       -0.1500
     20 F          68.5354   92.5561   16.5637 F       1  UNL1       -0.1500
     21 F          69.0692   94.6073   16.4780 F       1  UNL1       -0.1500
     22 C          61.4389   86.0254   11.2259 C.3     1  UNL1        0.1222
     23 C          62.4047   84.9138   10.9400 C.ar    1  UNL1        0.0007
     24 C          63.0028   84.7733    9.5716 C.ar    1  UNL1        0.0181
     25 C          63.9685   83.6617    9.2858 C.ar    1  UNL1        0.0986
     26 N          64.3362   82.6907   10.3683 N.ar    1  UNL1       -0.2439
     27 C          63.7381   82.8312   11.7367 C.ar    1  UNL1        0.0811
     28 C          64.1058   81.8602   12.8193 C.ar    1  UNL1        0.0191
     29 C          63.5078   82.0008   14.1876 C.ar    1  UNL1        0.0015
     30 C          62.5420   83.1123   14.4735 C.ar    1  UNL1        0.0001
     31 C          62.1743   84.0833   13.3910 C.ar    1  UNL1        0.0012
     32 C          62.7724   83.9428   12.0226 C.ar    1  UNL1        0.0153
@<TRIPOS>BOND
     1     2     1    1
     2     2     3    1
     3     3     4    2
     4     3     5   am
     5     5     9    1
     6     9    10   ar
     7    10    11   ar
     8    11    12   ar
     9    12    15    1
    10    15    16    2
    11    15    17    2
    12    15    18    1
    13    18    19    1
    14    18    20    1
    15    18    21    1
    16    12    13   ar
    17    13    14   ar
    18     5     6   am
    19     6     7    2
    20     6     8   am
    21     8    22    1
    22    22    23    1
    23    23    24   ar
    24    24    25   ar
    25    25    26   ar
    26    26    27   ar
    27    27    28   ar
    28    28    29   ar
    29    29    30   ar
    30    30    31   ar
    31    31    32   ar
    32     8     2    1
    33    32    23   ar
    34    14     9   ar
    35    32    27   ar
@<TRIPOS>MOLECULE
*****
 32 35 0 0 0
SMALL
GASTEIGER

@<TRIPOS>ATOM
      1 C          60.9661   89.9203    9.1250 C.3     1  UNL1        0.0315
      2 C          61.8863   89.7532   10.2977 C.3     1  UNL1        0.1544
      3 C          62.8832   90.7616   10.7868 C.2     1  UNL1        0.2544
      4 O          63.1349   92.1142   10.1891 O.2     1  UNL1       -0.2723
      5 N          63.5843   90.1799   11.9785 N.am    1  UNL1       -0.1910
      6 C          63.0207   88.8121   12.2259 C.2     1  UNL1        0.3174
      7 O          63.4340   87.8729   13.3200 O.2     1  UNL1       -0.2516
      8 N          61.9713   88.5483   11.1871 N.am    1  UNL1       -0.2526
      9 C          64.6602   90.8488   12.7818 C.ar    1  UNL1        0.0623
     10 C          65.4808   91.9454   12.1703 C.ar    1  UNL1        0.0167
     11 C          66.5566   92.6143   12.9735 C.ar    1  UNL1        0.0199
     12 C          66.8118   92.1864   14.3884 C.ar    1  UNL1        0.1143
     13 C          65.9912   91.0898   15.0000 C.ar    1  UNL1        0.0199
     14 C          64.9154   90.4210   14.1967 C.ar    1  UNL1        0.0167
     15 S          67.8877   92.8553   15.1918 S.O2    1  UNL1        0.0920
     16 O          68.8623   92.6302   14.0739 O.2     1  UNL1       -0.1612
     17 O          66.9131   93.0803   16.3095 O.2     1  UNL1       -0.1612
     18 C          68.9634   93.5241   15.9950 C.3     1  UNL1        0.5262
     19 F          69.4913   92.1816   16.4059 F       1  UNL1       -0.1500
     20 F          68.4355   94.8667   15.5841 F       1  UNL1       -0.1500
     21 F          70.0392   94.1930   16.7983 F       1  UNL1       -0.1500
     22 C          61.1509   87.2990   11.0600 C.3     1  UNL1        0.1222
     23 C          60.5453   86.9307    9.7381 C.ar    1  UNL1        0.0007
     24 C          59.1652   87.4025    9.3879 C.ar    1  UNL1        0.0181
     25 C          58.5595   87.0342    8.0659 C.ar    1  UNL1        0.0986
     26 N          59.3340   86.1940    7.0942 N.ar    1  UNL1       -0.2439
     27 C          60.7142   85.7221    7.4444 C.ar    1  UNL1        0.0811
     28 C          61.4886   84.8820    6.4726 C.ar    1  UNL1        0.0191
     29 C          62.8687   84.4102    6.8229 C.ar    1  UNL1        0.0015
     30 C          63.4743   84.7785    8.1448 C.ar    1  UNL1        0.0001
     31 C          62.6999   85.6187    9.1165 C.ar    1  UNL1        0.0012
     32 C          61.3198   86.0905    8.7663 C.ar    1  UNL1        0.0153
@<TRIPOS>BOND
     1     2     1    1
     2     2     3    1
     3     3     4    2
     4     3     5   am
     5     5     9    1
     6     9    10   ar
     7    10    11   ar
     8    11    12   ar
     9    12    15    1
    10    15    16    2
    11    15    17    2
    12    15    18    1
    13    18    19    1
    14    18    20    1
    15    18    21    1
    16    12    13   ar
    17    13    14   ar
    18     5     6   am
    19     6     7    2
    20     6     8   am
    21     8    22    1
    22    22    23    1
    23    23    24   ar
    24    24    25   ar
    25    25    26   ar
    26    26    27   ar
    27    27    28   ar
    28    28    29   ar
    29    29    30   ar
    30    30    31   ar
    31    31    32   ar
    32     8     2    1
    33    32    23   ar
    34    14     9   ar
    35    32    27   ar
@<TRIPOS>MOLECULE
*****
 32 35 0 0 0
SMALL
GASTEIGER

@<TRIPOS>ATOM
      1 C          63.5651   90.0265   16.6918 C.3     1  UNL1        0.0315
      2 C          63.5087   89.2169   15.4303 C.3     1  UNL1        0.1544
      3 C          63.4302   87.7214   15.3453 C.2     1  UNL1        0.2544
      4 O          63.3943   86.7729   16.5068 O.2     1  UNL1       -0.2723
      5 N          63.3938   87.3409   13.8948 N.am    1  UNL1       -0.1910
      6 C          63.4499   88.6012   13.0834 C.2     1  UNL1        0.3174
      7 O          63.4373   88.6870   11.5859 O.2     1  UNL1       -0.2516
      8 N          63.5209   89.7607   14.0324 N.am    1  UNL1       -0.2526
      9 C          63.3152   85.9450   13.3511 C.ar    1  UNL1        0.0623
     10 C          64.1212   84.8482   13.9814 C.ar    1  UNL1        0.0167
     11 C          64.0427   83.4523   13.4378 C.ar    1  UNL1        0.0199
     12 C          63.1580   83.1534   12.2638 C.ar    1  UNL1        0.1143
     13 C          62.3520   84.2503   11.6335 C.ar    1  UNL1        0.0199
     14 C          62.4306   85.6461   12.1772 C.ar    1  UNL1        0.0167
     15 S          63.0794   81.7576   11.7201 S.O2    1  UNL1        0.0920
     16 O          62.1186   81.3869   12.8108 O.2     1  UNL1       -0.1612
     17 O          64.0401   82.1283   10.6295 O.2     1  UNL1       -0.1612
     18 C          63.0008   80.3619   11.1765 C.3     1  UNL1        0.5262
     19 F          63.3239   80.8776    9.8056 F       1  UNL1       -0.1500
     20 F          62.6776   79.8461   12.5475 F       1  UNL1       -0.1500
     21 F          62.9221   78.9660   10.6329 F       1  UNL1       -0.1500
     22 C          63.5917   91.2095   13.6505 C.3     1  UNL1        0.1222
     23 C          64.8573   91.7724   13.0749 C.ar    1  UNL1        0.0007
     24 C          65.0053   91.9191   11.5894 C.ar    1  UNL1        0.0181
     25 C          66.2709   92.4821   11.0138 C.ar    1  UNL1        0.0986
     26 N          67.3885   92.8983   11.9235 N.ar    1  UNL1       -0.2439
     27 C          67.2405   92.7516   13.4090 C.ar    1  UNL1        0.0811
     28 C          68.3581   93.1678   14.3188 C.ar    1  UNL1        0.0191
     29 C          68.2101   93.0211   15.8042 C.ar    1  UNL1        0.0015
     30 C          66.9445   92.4582   16.3799 C.ar    1  UNL1        0.0001
     31 C          65.8269   92.0419   15.4701 C.ar    1  UNL1        0.0012
     32 C          65.9749   92.1887   13.9847 C.ar    1  UNL1        0.0153
@<TRIPOS>BOND
     1     2     1    1
     2     2     3    1
     3     3     4    2
     4     3     5   am
     5     5     9    1
     6     9    10   ar
     7    10    11   ar
     8    11    12   ar
     9    12    15    1
    10    15    16    2
    11    15    17    2
    12    15    18    1
    13    18    19    1
    14    18    20    1
    15    18    21    1
    16    12    13   ar
    17    13    14   ar
    18     5     6   am
    19     6     7    2
    20     6     8   am
    21     8    22    1
    22    22    23    1
    23    23    24   ar
    24    24    25   ar
    25    25    26   ar
    26    26    27   ar
    27    27    28   ar
    28    28    29   ar
    29    29    30   ar
    30    30    31   ar
    31    31    32   ar
    32     8     2    1
    33    32    23   ar
    34    14     9   ar
    35    32    27   ar
@<TRIPOS>MOLECULE
*****
 32 35 0 0 0
SMALL
GASTEIGER

@<TRIPOS>ATOM
      1 C          63.5678   89.4769   17.1331 C.3     1  UNL1        0.0315
      2 C          63.5322   88.7305   15.8325 C.3     1  UNL1        0.1544
      3 C          63.4108   87.2440   15.6721 C.2     1  UNL1        0.2544
      4 O          63.3037   86.2431   16.7841 O.2     1  UNL1       -0.2723
      5 N          63.4155   86.9343   14.2044 N.am    1  UNL1       -0.1910
      6 C          63.5397   88.2293   13.4578 C.2     1  UNL1        0.3174
      7 O          63.5840   88.3866   11.9667 O.2     1  UNL1       -0.2516
      8 N          63.6119   89.3394   14.4640 N.am    1  UNL1       -0.2526
      9 C          63.3137   85.5692   13.5910 C.ar    1  UNL1        0.0623
     10 C          63.8784   84.3800   14.3099 C.ar    1  UNL1        0.0167
     11 C          63.7767   83.0148   13.6967 C.ar    1  UNL1        0.0199
     12 C          63.1102   82.8390   12.3644 C.ar    1  UNL1        0.1143
     13 C          62.5455   84.0282   11.6455 C.ar    1  UNL1        0.0199
     14 C          62.6472   85.3933   12.2588 C.ar    1  UNL1        0.0167
     15 S          63.0084   81.4739   11.7510 S.O2    1  UNL1        0.0920
     16 O          63.7148   81.9721   10.5251 O.2     1  UNL1       -0.1612
     17 O          62.3021   80.9758   12.9769 O.2     1  UNL1       -0.1612
     18 C          62.9067   80.1089   11.1377 C.3     1  UNL1        0.5262
     19 F          62.5196   79.5391   12.4701 F       1  UNL1       -0.1500
     20 F          63.2938   80.6787    9.8052 F       1  UNL1       -0.1500
     21 F          62.8049   78.7438   10.5243 F       1  UNL1       -0.1500
     22 C          63.7410   90.8017   14.1558 C.3     1  UNL1        0.1222
     23 C          65.0993   91.4160   13.9893 C.ar    1  UNL1        0.0007
     24 C          66.0666   91.4192   15.1357 C.ar    1  UNL1        0.0181
     25 C          67.4249   92.0335   14.9693 C.ar    1  UNL1        0.0986
     26 N          67.8158   92.6447   13.6564 N.ar    1  UNL1       -0.2439
     27 C          66.8485   92.6415   12.5100 C.ar    1  UNL1        0.0811
     28 C          67.2395   93.2527   11.1971 C.ar    1  UNL1        0.0191
     29 C          66.2722   93.2495   10.0507 C.ar    1  UNL1        0.0015
     30 C          64.9139   92.6352   10.2172 C.ar    1  UNL1        0.0001
     31 C          64.5229   92.0241   11.5300 C.ar    1  UNL1        0.0012
     32 C          65.4902   92.0272   12.6764 C.ar    1  UNL1        0.0153
@<TRIPOS>BOND
     1     2     1    1
     2     2     3    1
     3     3     4    2
     4     3     5   am
     5     5     9    1
     6     9    10   ar
     7    10    11   ar
     8    11    12   ar
     9    12    15    1
    10    15    16    2
    11    15    17    2
    12    15    18    1
    13    18    19    1
    14    18    20    1
    15    18    21    1
    16    12    13   ar
    17    13    14   ar
    18     5     6   am
    19     6     7    2
    20     6     8   am
    21     8    22    1
    22    22    23    1
    23    23    24   ar
    24    24    25   ar
    25    25    26   ar
    26    26    27   ar
    27    27    28   ar
    28    28    29   ar
    29    29    30   ar
    30    30    31   ar
    31    31    32   ar
    32     8     2    1
    33    32    23   ar
    34    14     9   ar
    35    32    27   ar
@<TRIPOS>MOLECULE
*****
 32 35 0 0 0
SMALL
GASTEIGER

@<TRIPOS>ATOM
      1 C          60.7503   89.6395    9.6286 C.3     1  UNL1        0.0315
      2 C          61.7863   89.5083   10.7054 C.3     1  UNL1        0.1544
      3 C          62.7113   90.5914   11.1756 C.2     1  UNL1        0.2544
      4 O          62.7628   91.9960   10.6515 O.2     1  UNL1       -0.2723
      5 N          63.5759   90.0234   12.2619 N.am    1  UNL1       -0.1910
      6 C          63.1851   88.5892   12.4630 C.2     1  UNL1        0.3174
      7 O          63.7936   87.6401   13.4524 O.2     1  UNL1       -0.2516
      8 N          62.0791   88.2709   11.5011 N.am    1  UNL1       -0.2526
      9 C          64.6437   90.7602   13.0148 C.ar    1  UNL1        0.0623
     10 C          65.4027   91.8688   12.3478 C.ar    1  UNL1        0.0167
     11 C          66.4705   92.6057   13.1006 C.ar    1  UNL1        0.0199
     12 C          66.7793   92.2338   14.5207 C.ar    1  UNL1        0.1143
     13 C          66.0204   91.1253   15.1877 C.ar    1  UNL1        0.0199
     14 C          64.9525   90.3884   14.4348 C.ar    1  UNL1        0.0167
     15 S          67.8472   92.9707   15.2736 S.O2    1  UNL1        0.0920
     16 O          66.8753   93.2459   16.3826 O.2     1  UNL1       -0.1612
     17 O          68.8189   92.6955   14.1647 O.2     1  UNL1       -0.1612
     18 C          68.9149   93.7074   16.0265 C.3     1  UNL1        0.5262
     19 F          69.4473   92.4050   16.5461 F       1  UNL1       -0.1500
     20 F          68.3825   95.0100   15.5069 F       1  UNL1       -0.1500
     21 F          69.9827   94.4443   16.7794 F       1  UNL1       -0.1500
     22 C          61.3874   86.9475   11.3597 C.3     1  UNL1        0.1222
     23 C          62.1246   85.7732   10.7873 C.ar    1  UNL1        0.0007
     24 C          62.9935   84.9293   11.6721 C.ar    1  UNL1        0.0181
     25 C          63.7307   83.7551   11.0998 C.ar    1  UNL1        0.0986
     26 N          63.5991   83.4247    9.6426 N.ar    1  UNL1       -0.2439
     27 C          62.7302   84.2685    8.7577 C.ar    1  UNL1        0.0811
     28 C          62.5986   83.9381    7.3005 C.ar    1  UNL1        0.0191
     29 C          61.7298   84.7820    6.4156 C.ar    1  UNL1        0.0015
     30 C          60.9925   85.9562    6.9880 C.ar    1  UNL1        0.0001
     31 C          61.1241   86.2866    8.4452 C.ar    1  UNL1        0.0012
     32 C          61.9930   85.4428    9.3300 C.ar    1  UNL1        0.0153
@<TRIPOS>BOND
     1     2     1    1
     2     2     3    1
     3     3     4    2
     4     3     5   am
     5     5     9    1
     6     9    10   ar
     7    10    11   ar
     8    11    12   ar
     9    12    15    1
    10    15    16    2
    11    15    17    2
    12    15    18    1
    13    18    19    1
    14    18    20    1
    15    18    21    1
    16    12    13   ar
    17    13    14   ar
    18     5     6   am
    19     6     7    2
    20     6     8   am
    21     8    22    1
    22    22    23    1
    23    23    24   ar
    24    24    25   ar
    25    25    26   ar
    26    26    27   ar
    27    27    28   ar
    28    28    29   ar
    29    29    30   ar
    30    30    31   ar
    31    31    32   ar
    32     8     2    1
    33    32    23   ar
    34    14     9   ar
    35    32    27   ar
@<TRIPOS>MOLECULE
*****
 32 35 0 0 0
SMALL
GASTEIGER

@<TRIPOS>ATOM
      1 C          65.8784   96.6809   -1.5261 C.3     1  UNL1        0.0315
      2 C          64.6752   95.8277   -1.2539 C.3     1  UNL1        0.1544
      3 C          64.2250   95.3421    0.0920 C.2     1  UNL1        0.2544
      4 O          64.8990   95.6245    1.4020 O.2     1  UNL1       -0.2723
      5 N          62.9825   94.5244   -0.1021 N.am    1  UNL1       -0.1910
      6 C          62.6648   94.5047   -1.5679 C.2     1  UNL1        0.3174
      7 O          61.5046   93.8028   -2.2092 O.2     1  UNL1       -0.2516
      8 N          63.7109   95.3102   -2.2798 N.am    1  UNL1       -0.2526
      9 C          62.1958   93.8457    0.9798 C.ar    1  UNL1        0.0623
     10 C          60.7725   94.2445    1.2350 C.ar    1  UNL1        0.0167
     11 C          59.9857   93.5658    2.3168 C.ar    1  UNL1        0.0199
     12 C          60.6224   92.4881    3.1435 C.ar    1  UNL1        0.1143
     13 C          62.0457   92.0893    2.8884 C.ar    1  UNL1        0.0199
     14 C          62.8324   92.7681    1.8065 C.ar    1  UNL1        0.0167
     15 S          59.8356   91.8094    4.2254 S.O2    1  UNL1        0.0920
     16 O          58.5699   92.3931    3.6712 O.2     1  UNL1       -0.1612
     17 O          61.1013   91.2257    4.7796 O.2     1  UNL1       -0.1612
     18 C          59.0490   91.1306    5.3072 C.3     1  UNL1        0.5262
     19 F          60.1905   90.1872    5.5453 F       1  UNL1       -0.1500
     20 F          57.9075   92.0742    5.0691 F       1  UNL1       -0.1500
     21 F          58.2622   90.4519    6.3890 F       1  UNL1       -0.1500
     22 C          63.7806   95.5551   -3.7580 C.3     1  UNL1        0.1222
     23 C          64.4333   94.5460   -4.6555 C.ar    1  UNL1        0.0007
     24 C          64.0214   93.1052   -4.5887 C.ar    1  UNL1        0.0181
     25 C          64.6741   92.0961   -5.4862 C.ar    1  UNL1        0.0986
     26 N          65.7388   92.5277   -6.4505 N.ar    1  UNL1       -0.2439
     27 C          66.1509   93.9685   -6.5174 C.ar    1  UNL1        0.0811
     28 C          67.2156   94.4001   -7.4818 C.ar    1  UNL1        0.0191
     29 C          67.6276   95.8408   -7.5486 C.ar    1  UNL1        0.0015
     30 C          66.9748   96.8500   -6.6511 C.ar    1  UNL1        0.0001
     31 C          65.9101   96.4184   -5.6867 C.ar    1  UNL1        0.0012
     32 C          65.4981   94.9776   -5.6199 C.ar    1  UNL1        0.0153
@<TRIPOS>BOND
     1     2     1    1
     2     2     3    1
     3     3     4    2
     4     3     5   am
     5     5     9    1
     6     9    10   ar
     7    10    11   ar
     8    11    12   ar
     9    12    15    1
    10    15    16    2
    11    15    17    2
    12    15    18    1
    13    18    19    1
    14    18    20    1
    15    18    21    1
    16    12    13   ar
    17    13    14   ar
    18     5     6   am
    19     6     7    2
    20     6     8   am
    21     8    22    1
    22    22    23    1
    23    23    24   ar
    24    24    25   ar
    25    25    26   ar
    26    26    27   ar
    27    27    28   ar
    28    28    29   ar
    29    29    30   ar
    30    30    31   ar
    31    31    32   ar
    32     8     2    1
    33    32    23   ar
    34    14     9   ar
    35    32    27   ar
@<TRIPOS>MOLECULE
*****
 32 35 0 0 0
SMALL
GASTEIGER

@<TRIPOS>ATOM
      1 C          62.9505   87.7349   18.2251 C.3     1  UNL1        0.0315
      2 C          63.1483   87.1938   16.8402 C.3     1  UNL1        0.1544
      3 C          62.9407   85.7715   16.4114 C.2     1  UNL1        0.2544
      4 O          62.4988   84.6406   17.2922 O.2     1  UNL1       -0.2723
      5 N          63.2525   85.6786   14.9471 N.am    1  UNL1       -0.1910
      6 C          63.6529   87.0436   14.4709 C.2     1  UNL1        0.3174
      7 O          64.0482   87.4080   13.0706 O.2     1  UNL1       -0.2516
      8 N          63.5885   87.9800   15.6409 N.am    1  UNL1       -0.2526
      9 C          63.1772   84.4385   14.1065 C.ar    1  UNL1        0.0623
     10 C          62.6669   84.5169   12.6982 C.ar    1  UNL1        0.0167
     11 C          62.5915   83.2769   11.8575 C.ar    1  UNL1        0.0199
     12 C          63.0267   81.9584   12.4254 C.ar    1  UNL1        0.1143
     13 C          63.5370   81.8800   13.8337 C.ar    1  UNL1        0.0199
     14 C          63.6123   83.1201   14.6742 C.ar    1  UNL1        0.0167
     15 S          62.9514   80.7183   11.5848 S.O2    1  UNL1        0.0920
     16 O          63.4086   81.5007   10.3895 O.2     1  UNL1       -0.1612
     17 O          62.4941   79.9359   12.7800 O.2     1  UNL1       -0.1612
     18 C          62.8761   79.4783   10.7443 C.3     1  UNL1        0.5262
     19 F          62.5129   78.6769   11.9591 F       1  UNL1       -0.1500
     20 F          63.2393   80.2797    9.5294 F       1  UNL1       -0.1500
     21 F          62.8008   78.2382    9.9036 F       1  UNL1       -0.1500
     22 C          63.9081   89.4453   15.6160 C.3     1  UNL1        0.1222
     23 C          63.9217   90.1879   14.3129 C.ar    1  UNL1        0.0007
     24 C          62.7963   90.0111   13.3371 C.ar    1  UNL1        0.0181
     25 C          62.8100   90.7538   12.0339 C.ar    1  UNL1        0.0986
     26 N          63.9490   91.6732   11.7065 N.ar    1  UNL1       -0.2439
     27 C          65.0744   91.8501   12.6823 C.ar    1  UNL1        0.0811
     28 C          66.2134   92.7695   12.3549 C.ar    1  UNL1        0.0191
     29 C          67.3388   92.9463   13.3307 C.ar    1  UNL1        0.0015
     30 C          67.3252   92.2037   14.6339 C.ar    1  UNL1        0.0001
     31 C          66.1862   91.2842   14.9613 C.ar    1  UNL1        0.0012
     32 C          65.0608   91.1074   13.9855 C.ar    1  UNL1        0.0153
@<TRIPOS>BOND
     1     2     1    1
     2     2     3    1
     3     3     4    2
     4     3     5   am
     5     5     9    1
     6     9    10   ar
     7    10    11   ar
     8    11    12   ar
     9    12    15    1
    10    15    16    2
    11    15    17    2
    12    15    18    1
    13    18    19    1
    14    18    20    1
    15    18    21    1
    16    12    13   ar
    17    13    14   ar
    18     5     6   am
    19     6     7    2
    20     6     8   am
    21     8    22    1
    22    22    23    1
    23    23    24   ar
    24    24    25   ar
    25    25    26   ar
    26    26    27   ar
    27    27    28   ar
    28    28    29   ar
    29    29    30   ar
    30    30    31   ar
    31    31    32   ar
    32     8     2    1
    33    32    23   ar
    34    14     9   ar
    35    32    27   ar
