@<TRIPOS>MOLECULE
*****
 27 30 0 0 0
SMALL
GASTEIGER

@<TRIPOS>ATOM
      1 C          61.7175   89.0578    9.9033 C.2     1  UNL1       -0.0088
      2 C          62.0685   90.5012   10.1118 C.2     1  UNL1       -0.0032
      3 C          63.1480   90.8778   11.0828 C.ar    1  UNL1       -0.0003
      4 C          64.1971   91.8747   10.6883 C.ar    1  UNL1       -0.0000
      5 C          65.2767   92.2513   11.6593 C.ar    1  UNL1       -0.0000
      6 C          65.3071   91.6310   13.0246 C.ar    1  UNL1       -0.0000
      7 C          64.2580   90.6341   13.4191 C.ar    1  UNL1       -0.0000
      8 C          63.1785   90.2575   12.4482 C.ar    1  UNL1       -0.0000
      9 C          66.3867   92.0076   13.9956 C.ar    1  UNL1        0.0000
     10 C          66.0271   92.4424   15.3855 C.ar    1  UNL1        0.0000
     11 C          67.1067   92.8190   16.3564 C.ar    1  UNL1        0.0000
     12 C          68.5458   92.7608   15.9375 C.ar    1  UNL1        0.0000
     13 C          68.9054   92.3260   14.5476 C.ar    1  UNL1        0.0000
     14 C          67.8258   91.9494   13.5767 C.ar    1  UNL1        0.0000
     15 C          60.6380   88.6811    8.9324 C.3     1  UNL1        0.0992
     16 C          59.1233   86.7985    7.9776 C.3     1  UNL1        0.0902
     17 N          60.4321   87.2426    8.5607 N.3     1  UNL1       -0.2639
     18 C          61.5349   86.2480    8.7722 C.3     1  UNL1        0.1027
     19 C          61.8544   85.7652   10.1560 C.ar    1  UNL1        0.0344
     20 C          61.2905   86.3137   11.4332 C.ar    1  UNL1        0.1766
     21 O          61.8814   85.5367   12.5721 O.2     1  UNL1       -0.4507
     22 C          62.8104   84.5080   11.9987 C.ar    1  UNL1        0.1452
     23 C          63.6694   83.4609   12.6435 C.ar    1  UNL1        0.0375
     24 C          64.5117   82.5551   11.7949 C.ar    1  UNL1        0.0031
     25 C          64.4950   82.6963   10.3017 C.ar    1  UNL1        0.0002
     26 C          63.6360   83.7434    9.6570 C.ar    1  UNL1        0.0029
     27 C          62.7937   84.6492   10.5055 C.ar    1  UNL1        0.0349
@<TRIPOS>BOND
     1    16    17    1
     2    17    15    1
     3    15     1    1
     4     1     2    2
     5     2     3    1
     6     3     4   ar
     7     4     5   ar
     8     5     6   ar
     9     6     9    1
    10     9    10   ar
    11    10    11   ar
    12    11    12   ar
    13    12    13   ar
    14    13    14   ar
    15     6     7   ar
    16     7     8   ar
    17    17    18    1
    18    18    19    1
    19    19    20   ar
    20    20    21   ar
    21    21    22   ar
    22    22    23   ar
    23    23    24   ar
    24    24    25   ar
    25    25    26   ar
    26    26    27   ar
    27     8     3   ar
    28    27    19   ar
    29    14     9   ar
    30    27    22   ar
@<TRIPOS>MOLECULE
*****
 27 30 0 0 0
SMALL
GASTEIGER

@<TRIPOS>ATOM
      1 C          61.5965   89.7104    9.7422 C.2     1  UNL1       -0.0088
      2 C          61.5563   89.8394   11.2361 C.2     1  UNL1       -0.0032
      3 C          62.7555   90.3518   11.9771 C.ar    1  UNL1       -0.0003
      4 C          63.0154   89.9035   13.3848 C.ar    1  UNL1       -0.0000
      5 C          64.2147   90.4160   14.1258 C.ar    1  UNL1       -0.0000
      6 C          65.1540   91.3768   13.4592 C.ar    1  UNL1       -0.0000
      7 C          64.8941   91.8252   12.0515 C.ar    1  UNL1       -0.0000
      8 C          63.6949   91.3127   11.3106 C.ar    1  UNL1       -0.0000
      9 C          66.3533   91.8893   14.2003 C.ar    1  UNL1        0.0000
     10 C          67.7135   91.8082   13.5732 C.ar    1  UNL1        0.0000
     11 C          68.9127   92.3207   14.3143 C.ar    1  UNL1        0.0000
     12 C          68.7517   92.9143   15.6824 C.ar    1  UNL1        0.0000
     13 C          67.3915   92.9953   16.3095 C.ar    1  UNL1        0.0000
     14 C          66.1923   92.4828   15.5684 C.ar    1  UNL1        0.0000
     15 C          60.3973   89.1980    9.0010 C.3     1  UNL1        0.0992
     16 C          59.0013   87.1777    8.1528 C.3     1  UNL1        0.0902
     17 N          60.0227   87.7483    9.0915 N.3     1  UNL1       -0.2639
     18 C          60.6695   86.8693   10.1206 C.3     1  UNL1        0.1027
     19 C          61.7432   85.9038    9.7143 C.ar    1  UNL1        0.0344
     20 C          62.2343   85.6683    8.3167 C.ar    1  UNL1        0.1766
     21 O          63.3088   84.6232    8.3730 O.2     1  UNL1       -0.4507
     22 C          63.4818   84.2128    9.8053 C.ar    1  UNL1        0.1452
     23 C          64.3954   83.2207   10.4618 C.ar    1  UNL1        0.0375
     24 C          64.3413   83.0200   11.9473 C.ar    1  UNL1        0.0031
     25 C          63.3736   83.8114   12.7763 C.ar    1  UNL1        0.0002
     26 C          62.4600   84.8035   12.1198 C.ar    1  UNL1        0.0029
     27 C          62.5141   85.0042   10.6343 C.ar    1  UNL1        0.0349
@<TRIPOS>BOND
     1    16    17    1
     2    17    15    1
     3    15     1    1
     4     1     2    2
     5     2     3    1
     6     3     4   ar
     7     4     5   ar
     8     5     6   ar
     9     6     9    1
    10     9    10   ar
    11    10    11   ar
    12    11    12   ar
    13    12    13   ar
    14    13    14   ar
    15     6     7   ar
    16     7     8   ar
    17    17    18    1
    18    18    19    1
    19    19    20   ar
    20    20    21   ar
    21    21    22   ar
    22    22    23   ar
    23    23    24   ar
    24    24    25   ar
    25    25    26   ar
    26    26    27   ar
    27     8     3   ar
    28    27    19   ar
    29    14     9   ar
    30    27    22   ar
@<TRIPOS>MOLECULE
*****
 27 30 0 0 0
SMALL
GASTEIGER

@<TRIPOS>ATOM
      1 C          64.3647   88.1575   14.8781 C.2     1  UNL1       -0.0088
      2 C          64.0001   89.6111   14.9426 C.2     1  UNL1       -0.0032
      3 C          64.6052   90.5799   13.9704 C.ar    1  UNL1       -0.0003
      4 C          63.9141   90.8686   12.6708 C.ar    1  UNL1       -0.0000
      5 C          64.5193   91.8375   11.6986 C.ar    1  UNL1       -0.0000
      6 C          65.8155   92.5176   12.0260 C.ar    1  UNL1       -0.0000
      7 C          66.5066   92.2288   13.3256 C.ar    1  UNL1       -0.0000
      8 C          65.9015   91.2600   14.2978 C.ar    1  UNL1       -0.0000
      9 C          66.4206   93.4864   11.0538 C.ar    1  UNL1        0.0000
     10 C          67.3030   92.9871    9.9482 C.ar    1  UNL1        0.0000
     11 C          67.9080   93.9560    8.9761 C.ar    1  UNL1        0.0000
     12 C          67.6308   95.4241    9.1094 C.ar    1  UNL1        0.0000
     13 C          66.7485   95.9234   10.2150 C.ar    1  UNL1        0.0000
     14 C          66.1434   94.9546   11.1871 C.ar    1  UNL1        0.0000
     15 C          63.7597   87.1886   15.8503 C.3     1  UNL1        0.0992
     16 C          62.4900   84.9470   16.1866 C.3     1  UNL1        0.0902
     17 N          63.4834   85.7761   15.4278 N.3     1  UNL1       -0.2639
     18 C          64.2007   85.1926   14.2466 C.3     1  UNL1        0.1027
     19 C          63.4422   84.8685   12.9937 C.ar    1  UNL1        0.0344
     20 C          63.1232   83.4933   12.4869 C.ar    1  UNL1        0.1766
     21 O          62.3534   83.6377   11.2077 O.2     1  UNL1       -0.4507
     22 C          62.1967   85.1022   10.9238 C.ar    1  UNL1        0.1452
     23 C          61.5281   85.8414    9.8028 C.ar    1  UNL1        0.0375
     24 C          61.5325   87.3413    9.7857 C.ar    1  UNL1        0.0031
     25 C          62.2054   88.1020   10.8895 C.ar    1  UNL1        0.0002
     26 C          62.8739   87.3628   12.0105 C.ar    1  UNL1        0.0029
     27 C          62.8696   85.8630   12.0277 C.ar    1  UNL1        0.0349
@<TRIPOS>BOND
     1    16    17    1
     2    17    15    1
     3    15     1    1
     4     1     2    2
     5     2     3    1
     6     3     4   ar
     7     4     5   ar
     8     5     6   ar
     9     6     9    1
    10     9    10   ar
    11    10    11   ar
    12    11    12   ar
    13    12    13   ar
    14    13    14   ar
    15     6     7   ar
    16     7     8   ar
    17    17    18    1
    18    18    19    1
    19    19    20   ar
    20    20    21   ar
    21    21    22   ar
    22    22    23   ar
    23    23    24   ar
    24    24    25   ar
    25    25    26   ar
    26    26    27   ar
    27     8     3   ar
    28    27    19   ar
    29    14     9   ar
    30    27    22   ar
@<TRIPOS>MOLECULE
*****
 27 30 0 0 0
SMALL
GASTEIGER

@<TRIPOS>ATOM
      1 C          64.3336   87.8409   14.4586 C.2     1  UNL1       -0.0088
      2 C          64.0310   89.2853   14.7271 C.2     1  UNL1       -0.0032
      3 C          64.6058   90.3495   13.8400 C.ar    1  UNL1       -0.0003
      4 C          63.9186   90.7071   12.5555 C.ar    1  UNL1       -0.0000
      5 C          64.4936   91.7713   11.6684 C.ar    1  UNL1       -0.0000
      6 C          65.7556   92.4779   12.0658 C.ar    1  UNL1       -0.0000
      7 C          66.4428   92.1202   13.3502 C.ar    1  UNL1       -0.0000
      8 C          65.8679   91.0561   14.2373 C.ar    1  UNL1       -0.0000
      9 C          66.3305   93.5421   11.1786 C.ar    1  UNL1        0.0000
     10 C          66.0414   94.9874   11.4569 C.ar    1  UNL1        0.0000
     11 C          66.6163   96.0516   10.5698 C.ar    1  UNL1        0.0000
     12 C          67.4802   95.6705    9.4043 C.ar    1  UNL1        0.0000
     13 C          67.7693   94.2251    9.1260 C.ar    1  UNL1        0.0000
     14 C          67.1944   93.1610   10.0131 C.ar    1  UNL1        0.0000
     15 C          63.7589   86.7766   15.3457 C.3     1  UNL1        0.0992
     16 C          64.7948   84.3950   15.4143 C.3     1  UNL1        0.0902
     17 N          63.7568   85.3457   14.8959 N.3     1  UNL1       -0.2639
     18 C          62.7166   84.8654   13.9275 C.3     1  UNL1        0.1027
     19 C          63.1016   84.5353   12.5159 C.ar    1  UNL1        0.0344
     20 C          64.0616   83.4638   12.0913 C.ar    1  UNL1        0.1766
     21 O          64.1474   83.4851   10.5940 O.2     1  UNL1       -0.4507
     22 C          63.2405   84.5699   10.0930 C.ar    1  UNL1        0.1452
     23 C          62.9198   85.0504    8.7088 C.ar    1  UNL1        0.0375
     24 C          61.9527   86.1801    8.5124 C.ar    1  UNL1        0.0031
     25 C          61.3063   86.8291    9.7002 C.ar    1  UNL1        0.0002
     26 C          61.6271   86.3486   11.0845 C.ar    1  UNL1        0.0029
     27 C          62.5941   85.2189   11.2809 C.ar    1  UNL1        0.0349
@<TRIPOS>BOND
     1    16    17    1
     2    17    15    1
     3    15     1    1
     4     1     2    2
     5     2     3    1
     6     3     4   ar
     7     4     5   ar
     8     5     6   ar
     9     6     9    1
    10     9    10   ar
    11    10    11   ar
    12    11    12   ar
    13    12    13   ar
    14    13    14   ar
    15     6     7   ar
    16     7     8   ar
    17    17    18    1
    18    18    19    1
    19    19    20   ar
    20    20    21   ar
    21    21    22   ar
    22    22    23   ar
    23    23    24   ar
    24    24    25   ar
    25    25    26   ar
    26    26    27   ar
    27     8     3   ar
    28    27    19   ar
    29    14     9   ar
    30    27    22   ar
@<TRIPOS>MOLECULE
*****
 27 30 0 0 0
SMALL
GASTEIGER

@<TRIPOS>ATOM
      1 C          64.1757   88.5424   14.9117 C.2     1  UNL1       -0.0088
      2 C          64.1231   90.0295   15.1004 C.2     1  UNL1       -0.0032
      3 C          64.7112   90.9385   14.0622 C.ar    1  UNL1       -0.0003
      4 C          65.9605   91.7121   14.3635 C.ar    1  UNL1       -0.0000
      5 C          66.5485   92.6211   13.3252 C.ar    1  UNL1       -0.0000
      6 C          65.8874   92.7564   11.9857 C.ar    1  UNL1       -0.0000
      7 C          64.6381   91.9827   11.6843 C.ar    1  UNL1       -0.0000
      8 C          64.0501   91.0738   12.7225 C.ar    1  UNL1       -0.0000
      9 C          66.4755   93.6654   10.9474 C.ar    1  UNL1        0.0000
     10 C          67.3215   93.0980    9.8463 C.ar    1  UNL1        0.0000
     11 C          67.9096   94.0070    8.8081 C.ar    1  UNL1        0.0000
     12 C          67.6516   95.4833    8.8710 C.ar    1  UNL1        0.0000
     13 C          66.8056   96.0507    9.9720 C.ar    1  UNL1        0.0000
     14 C          66.2176   95.1417   11.0102 C.ar    1  UNL1        0.0000
     15 C          63.5876   87.6334   15.9498 C.3     1  UNL1        0.0992
     16 C          62.5873   85.3045   16.5208 C.3     1  UNL1        0.0902
     17 N          63.5021   86.1580   15.6932 N.3     1  UNL1       -0.2639
     18 C          64.3314   85.5359   14.6090 C.3     1  UNL1        0.1027
     19 C          63.6637   84.8495   13.4544 C.ar    1  UNL1        0.0344
     20 C          63.0737   85.5220   12.2504 C.ar    1  UNL1        0.1766
     21 O          62.5142   84.4582   11.3531 O.2     1  UNL1       -0.4507
     22 C          62.7584   83.1283   12.0025 C.ar    1  UNL1        0.1452
     23 C          62.4256   81.7283   11.5790 C.ar    1  UNL1        0.0375
     24 C          62.8034   80.5702   12.4543 C.ar    1  UNL1        0.0031
     25 C          63.5139   80.8121   13.7530 C.ar    1  UNL1        0.0002
     26 C          63.8466   82.2121   14.1765 C.ar    1  UNL1        0.0029
     27 C          63.4689   83.3701   13.3012 C.ar    1  UNL1        0.0349
@<TRIPOS>BOND
     1    16    17    1
     2    17    15    1
     3    15     1    1
     4     1     2    2
     5     2     3    1
     6     3     4   ar
     7     4     5   ar
     8     5     6   ar
     9     6     9    1
    10     9    10   ar
    11    10    11   ar
    12    11    12   ar
    13    12    13   ar
    14    13    14   ar
    15     6     7   ar
    16     7     8   ar
    17    17    18    1
    18    18    19    1
    19    19    20   ar
    20    20    21   ar
    21    21    22   ar
    22    22    23   ar
    23    23    24   ar
    24    24    25   ar
    25    25    26   ar
    26    26    27   ar
    27     8     3   ar
    28    27    19   ar
    29    14     9   ar
    30    27    22   ar
@<TRIPOS>MOLECULE
*****
 27 30 0 0 0
SMALL
GASTEIGER

@<TRIPOS>ATOM
      1 C          64.6643   86.9934   14.8721 C.2     1  UNL1       -0.0088
      2 C          64.0833   88.3505   15.1381 C.2     1  UNL1       -0.0032
      3 C          64.5114   89.5252   14.3094 C.ar    1  UNL1       -0.0003
      4 C          65.6739   90.3669   14.7454 C.ar    1  UNL1       -0.0000
      5 C          66.1019   91.5416   13.9166 C.ar    1  UNL1       -0.0000
      6 C          65.3674   91.8745   12.6519 C.ar    1  UNL1       -0.0000
      7 C          64.2049   91.0328   12.2158 C.ar    1  UNL1       -0.0000
      8 C          63.7769   89.8582   13.0446 C.ar    1  UNL1       -0.0000
      9 C          65.7955   93.0493   11.8230 C.ar    1  UNL1        0.0000
     10 C          66.0632   92.8754   10.3574 C.ar    1  UNL1        0.0000
     11 C          66.4912   94.0501    9.5287 C.ar    1  UNL1        0.0000
     12 C          66.6516   95.3987   10.1656 C.ar    1  UNL1        0.0000
     13 C          66.3840   95.5726   11.6313 C.ar    1  UNL1        0.0000
     14 C          65.9559   94.3978   12.4599 C.ar    1  UNL1        0.0000
     15 C          64.2362   85.8187   15.7007 C.3     1  UNL1        0.0992
     16 C          62.0337   86.1381   17.0412 C.3     1  UNL1        0.0902
     17 N          62.7773   85.5266   15.8909 N.3     1  UNL1       -0.2639
     18 C          62.0619   84.6231   14.9307 C.3     1  UNL1        0.1027
     19 C          62.8273   83.9241   13.8465 C.ar    1  UNL1        0.0344
     20 C          63.7054   82.7208   14.0224 C.ar    1  UNL1        0.1766
     21 O          64.2698   82.3587   12.6806 O.2     1  UNL1       -0.4507
     22 C          63.7405   83.3382   11.6754 C.ar    1  UNL1        0.1452
     23 C          63.9552   83.4742   10.1972 C.ar    1  UNL1        0.0375
     24 C          63.2784   84.5777    9.4394 C.ar    1  UNL1        0.0031
     25 C          62.3869   85.5452   10.1599 C.ar    1  UNL1        0.0002
     26 C          62.1722   85.4092   11.6382 C.ar    1  UNL1        0.0029
     27 C          62.8490   84.3057   12.3960 C.ar    1  UNL1        0.0349
@<TRIPOS>BOND
     1    16    17    1
     2    17    15    1
     3    15     1    1
     4     1     2    2
     5     2     3    1
     6     3     4   ar
     7     4     5   ar
     8     5     6   ar
     9     6     9    1
    10     9    10   ar
    11    10    11   ar
    12    11    12   ar
    13    12    13   ar
    14    13    14   ar
    15     6     7   ar
    16     7     8   ar
    17    17    18    1
    18    18    19    1
    19    19    20   ar
    20    20    21   ar
    21    21    22   ar
    22    22    23   ar
    23    23    24   ar
    24    24    25   ar
    25    25    26   ar
    26    26    27   ar
    27     8     3   ar
    28    27    19   ar
    29    14     9   ar
    30    27    22   ar
@<TRIPOS>MOLECULE
*****
 27 30 0 0 0
SMALL
GASTEIGER

@<TRIPOS>ATOM
      1 C          62.2773   88.6246   11.3108 C.2     1  UNL1       -0.0088
      2 C          62.9827   89.4690   12.3303 C.2     1  UNL1       -0.0032
      3 C          63.7416   90.6886   11.8984 C.ar    1  UNL1       -0.0003
      4 C          63.5257   91.2603   10.5285 C.ar    1  UNL1       -0.0000
      5 C          64.2847   92.4800   10.0968 C.ar    1  UNL1       -0.0000
      6 C          65.2595   93.1278   11.0348 C.ar    1  UNL1       -0.0000
      7 C          65.4754   92.5561   12.4046 C.ar    1  UNL1       -0.0000
      8 C          64.7165   91.3365   12.8364 C.ar    1  UNL1       -0.0000
      9 C          66.0185   94.3475   10.6029 C.ar    1  UNL1        0.0000
     10 C          65.8564   95.6364   11.3529 C.ar    1  UNL1        0.0000
     11 C          66.6154   96.8559   10.9210 C.ar    1  UNL1        0.0000
     12 C          67.5364   96.7867    9.7391 C.ar    1  UNL1        0.0000
     13 C          67.6985   95.4978    8.9891 C.ar    1  UNL1        0.0000
     14 C          66.9395   94.2783    9.4210 C.ar    1  UNL1        0.0000
     15 C          61.5183   87.4049   11.7426 C.3     1  UNL1        0.0992
     16 C          61.2788   85.5219    9.9686 C.3     1  UNL1        0.0902
     17 N          61.9099   86.0542   11.2210 N.3     1  UNL1       -0.2639
     18 C          62.9326   85.2355   11.9519 C.3     1  UNL1        0.1027
     19 C          63.1443   83.7969   11.5837 C.ar    1  UNL1        0.0344
     20 C          63.8410   83.2949   10.3538 C.ar    1  UNL1        0.1766
     21 O          63.8236   81.7954   10.3908 O.2     1  UNL1       -0.4507
     22 C          63.1162   81.3708   11.6435 C.ar    1  UNL1        0.1452
     23 C          62.8002   80.0175   12.2081 C.ar    1  UNL1        0.0375
     24 C          62.0642   79.9013   13.5100 C.ar    1  UNL1        0.0031
     25 C          61.6444   81.1383   14.2472 C.ar    1  UNL1        0.0002
     26 C          61.9604   82.4916   13.6826 C.ar    1  UNL1        0.0029
     27 C          62.6964   82.6078   12.3808 C.ar    1  UNL1        0.0349
@<TRIPOS>BOND
     1    16    17    1
     2    17    15    1
     3    15     1    1
     4     1     2    2
     5     2     3    1
     6     3     4   ar
     7     4     5   ar
     8     5     6   ar
     9     6     9    1
    10     9    10   ar
    11    10    11   ar
    12    11    12   ar
    13    12    13   ar
    14    13    14   ar
    15     6     7   ar
    16     7     8   ar
    17    17    18    1
    18    18    19    1
    19    19    20   ar
    20    20    21   ar
    21    21    22   ar
    22    22    23   ar
    23    23    24   ar
    24    24    25   ar
    25    25    26   ar
    26    26    27   ar
    27     8     3   ar
    28    27    19   ar
    29    14     9   ar
    30    27    22   ar
@<TRIPOS>MOLECULE
*****
 27 30 0 0 0
SMALL
GASTEIGER

@<TRIPOS>ATOM
      1 C          62.2050   88.6508   11.3095 C.2     1  UNL1       -0.0088
      2 C          63.0662   89.3812   12.2968 C.2     1  UNL1       -0.0032
      3 C          63.7921   90.6265   11.8819 C.ar    1  UNL1       -0.0003
      4 C          63.5459   91.2220   10.5273 C.ar    1  UNL1       -0.0000
      5 C          64.2718   92.4674   10.1124 C.ar    1  UNL1       -0.0000
      6 C          65.2437   93.1173   11.0520 C.ar    1  UNL1       -0.0000
      7 C          65.4899   92.5218   12.4065 C.ar    1  UNL1       -0.0000
      8 C          64.7640   91.2765   12.8214 C.ar    1  UNL1       -0.0000
      9 C          65.9696   94.3627   10.6370 C.ar    1  UNL1        0.0000
     10 C          66.8112   94.3618    9.3953 C.ar    1  UNL1        0.0000
     11 C          67.5370   95.6072    8.9804 C.ar    1  UNL1        0.0000
     12 C          67.4213   96.8534    9.8071 C.ar    1  UNL1        0.0000
     13 C          66.5797   96.8543   11.0488 C.ar    1  UNL1        0.0000
     14 C          65.8539   95.6089   11.4637 C.ar    1  UNL1        0.0000
     15 C          61.4791   87.4055   11.7244 C.3     1  UNL1        0.0992
     16 C          61.8129   85.1431   10.4915 C.3     1  UNL1        0.0902
     17 N          62.1569   86.0716   11.6182 N.3     1  UNL1       -0.2639
     18 C          63.1789   85.6662   12.6388 C.3     1  UNL1        0.1027
     19 C          62.9404   84.4628   13.5019 C.ar    1  UNL1        0.0344
     20 C          62.7383   84.4699   14.9882 C.ar    1  UNL1        0.1766
     21 O          62.5352   83.0525   15.4351 O.2     1  UNL1       -0.4507
     22 C          62.6117   82.1694   14.2250 C.ar    1  UNL1        0.1452
     23 C          62.4856   80.6843   14.0567 C.ar    1  UNL1        0.0375
     24 C          62.6100   80.0707   12.6936 C.ar    1  UNL1        0.0031
     25 C          62.8605   80.9424   11.4988 C.ar    1  UNL1        0.0002
     26 C          62.9865   82.4275   11.6671 C.ar    1  UNL1        0.0029
     27 C          62.8621   83.0411   13.0302 C.ar    1  UNL1        0.0349
@<TRIPOS>BOND
     1    16    17    1
     2    17    15    1
     3    15     1    1
     4     1     2    2
     5     2     3    1
     6     3     4   ar
     7     4     5   ar
     8     5     6   ar
     9     6     9    1
    10     9    10   ar
    11    10    11   ar
    12    11    12   ar
    13    12    13   ar
    14    13    14   ar
    15     6     7   ar
    16     7     8   ar
    17    17    18    1
    18    18    19    1
    19    19    20   ar
    20    20    21   ar
    21    21    22   ar
    22    22    23   ar
    23    23    24   ar
    24    24    25   ar
    25    25    26   ar
    26    26    27   ar
    27     8     3   ar
    28    27    19   ar
    29    14     9   ar
    30    27    22   ar
@<TRIPOS>MOLECULE
*****
 27 30 0 0 0
SMALL
GASTEIGER

@<TRIPOS>ATOM
      1 C          63.6074   88.0630   12.9394 C.2     1  UNL1       -0.0088
      2 C          63.8811   86.8847   13.8263 C.2     1  UNL1       -0.0032
      3 C          63.6723   85.4923   13.3092 C.ar    1  UNL1       -0.0003
      4 C          64.4242   84.3457   13.9175 C.ar    1  UNL1       -0.0000
      5 C          64.2153   82.9532   13.4003 C.ar    1  UNL1       -0.0000
      6 C          63.2547   82.7074   12.2749 C.ar    1  UNL1       -0.0000
      7 C          62.5028   83.8540   11.6666 C.ar    1  UNL1       -0.0000
      8 C          62.7116   85.2464   12.1838 C.ar    1  UNL1       -0.0000
      9 C          63.0459   81.3149   11.7577 C.ar    1  UNL1        0.0000
     10 C          62.6747   80.2113   12.7035 C.ar    1  UNL1        0.0000
     11 C          62.4659   78.8189   12.1863 C.ar    1  UNL1        0.0000
     12 C          62.6283   78.5300   10.7234 C.ar    1  UNL1        0.0000
     13 C          62.9994   79.6335    9.7776 C.ar    1  UNL1        0.0000
     14 C          63.2082   81.0259   10.2948 C.ar    1  UNL1        0.0000
     15 C          63.8162   89.4555   13.4564 C.3     1  UNL1        0.0992
     16 C          64.4634   91.9233   12.9651 C.3     1  UNL1        0.0902
     17 N          63.9265   90.6032   12.4969 N.3     1  UNL1       -0.2639
     18 C          63.4999   90.4308   11.0691 C.3     1  UNL1        0.1027
     19 C          62.1131   89.9547   10.7530 C.ar    1  UNL1        0.0344
     20 C          60.8374   90.6653   11.0959 C.ar    1  UNL1        0.1766
     21 O          59.6943   89.8342   10.5933 O.2     1  UNL1       -0.4507
     22 C          60.2636   88.6100    9.9397 C.ar    1  UNL1        0.1452
     23 C          59.6139   87.4370    9.2674 C.ar    1  UNL1        0.0375
     24 C          60.4590   86.3385    8.6938 C.ar    1  UNL1        0.0031
     25 C          61.9539   86.4130    8.7926 C.ar    1  UNL1        0.0002
     26 C          62.6037   87.5860    9.4648 C.ar    1  UNL1        0.0029
     27 C          61.7585   88.6845   10.0384 C.ar    1  UNL1        0.0349
@<TRIPOS>BOND
     1    16    17    1
     2    17    15    1
     3    15     1    1
     4     1     2    2
     5     2     3    1
     6     3     4   ar
     7     4     5   ar
     8     5     6   ar
     9     6     9    1
    10     9    10   ar
    11    10    11   ar
    12    11    12   ar
    13    12    13   ar
    14    13    14   ar
    15     6     7   ar
    16     7     8   ar
    17    17    18    1
    18    18    19    1
    19    19    20   ar
    20    20    21   ar
    21    21    22   ar
    22    22    23   ar
    23    23    24   ar
    24    24    25   ar
    25    25    26   ar
    26    26    27   ar
    27     8     3   ar
    28    27    19   ar
    29    14     9   ar
    30    27    22   ar
