@<TRIPOS>MOLECULE
*****
 65 72 0 0 0
SMALL
GASTEIGER

@<TRIPOS>ATOM
      1 N          65.4720   89.9037   13.8045 N.3     1  UNL1       -0.1862
      2 C          65.8875   88.7898   14.7191 C.3     1  UNL1        0.1775
      3 C          65.1276   87.4965   14.7193 C.2     1  UNL1        0.2452
      4 O          65.5432   86.3826   15.6339 O.2     1  UNL1       -0.2732
      5 N          63.9523   87.3171   13.8048 N.am    1  UNL1       -0.2541
      6 C          63.1924   86.0238   13.8049 C.3     1  UNL1        0.1577
      7 C          62.0171   85.8444   12.8904 C.2     1  UNL1        0.2445
      8 O          61.2572   84.5512   12.8906 O.2     1  UNL1       -0.2731
      9 N          61.6015   86.9584   11.9758 N.am    1  UNL1       -0.2705
     10 C          62.3614   88.2517   11.9756 C.3     1  UNL1        0.1359
     11 C          63.5368   88.4310   12.8902 C.3     1  UNL1        0.1908
     12 N          64.2967   89.7243   12.8900 N.am    1  UNL1       -0.1863
     13 C          63.8811   90.8382   11.9754 C.2     1  UNL1        0.3191
     14 O          62.7058   90.6589   11.0609 O.2     1  UNL1       -0.2512
     15 N          64.6410   92.1315   11.9752 N.am    1  UNL1       -0.2836
     16 H          65.4124   92.2493   12.5754 H       1  UNL1        0.1513
     17 C          66.2319   91.1970   13.8044 C.3     1  UNL1        0.1188
     18 C          67.1694   92.5671   15.8028 C.2     1  UNL1       -0.0034
     19 C          67.3040   91.4371   14.8256 C.2     1  UNL1       -0.0071
     20 C          63.6079   84.9099   14.7195 C.3     1  UNL1        0.0556
     21 C          63.3403   83.4848   14.3355 C.ar    1  UNL1       -0.0198
     22 C          64.2692   82.7740   13.3966 C.ar    1  UNL1       -0.0011
     23 C          64.0016   81.3489   13.0126 C.ar    1  UNL1        0.0363
     24 C          62.8050   80.6346   13.5675 C.ar    1  UNL1        0.1337
     25 O          62.5374   79.2095   13.1835 O.3     1  UNL1       -0.5055
     26 C          61.8760   81.3455   14.5065 C.ar    1  UNL1        0.0363
     27 C          62.1436   82.7706   14.8905 C.ar    1  UNL1       -0.0011
     28 H          63.1177   78.7655   12.5969 H       1  UNL1        0.2922
     29 C          60.4262   86.7790   11.0613 C.3     1  UNL1        0.1217
     30 C          60.5736   87.0370    9.5910 C.ar    1  UNL1        0.0135
     31 C          61.0922   85.9570    8.6883 C.ar    1  UNL1       -0.0012
     32 C          61.2396   86.2149    7.2181 C.ar    1  UNL1       -0.0002
     33 C          60.8684   87.5528    6.6505 C.ar    1  UNL1        0.0015
     34 C          60.3498   88.6327    7.5531 C.ar    1  UNL1        0.0170
     35 C          59.9068   90.0401    7.2827 C.ar    1  UNL1        0.0186
     36 C          59.4855   90.6519    8.5858 C.ar    1  UNL1        0.0759
     37 N          59.6682   89.6227    9.6615 N.ar    1  UNL1       -0.3242
     38 C          59.3693   89.8088   11.1196 C.3     1  UNL1        0.1305
     39 C          60.2024   88.3748    9.0233 C.ar    1  UNL1        0.0575
     40 C          59.8882   90.7168    5.9440 C.ar    1  UNL1        0.0015
     41 C          58.6003   91.2523    5.3922 C.ar    1  UNL1        0.0002
     42 C          58.5819   91.9290    4.0536 C.ar    1  UNL1        0.0045
     43 C          59.8512   92.0701    3.2669 C.ar    1  UNL1        0.0537
     44 C          61.1391   91.5345    3.8188 C.ar    1  UNL1        0.0045
     45 C          61.1575   90.8579    5.1573 C.ar    1  UNL1        0.0002
     46 C          59.8326   92.7468    1.9284 C.2     1  UNL1        0.2495
     47 O          59.6978   94.2383    1.8438 O.2     1  UNL1       -0.2698
     48 N          59.9489   91.9320    0.6743 N.am    1  UNL1       -0.2804
     49 H          60.0373   90.9530    0.7297 H       1  UNL1        0.1552
     50 C          59.9303   92.6087   -0.6642 C.ar    1  UNL1        0.0506
     51 C          58.6495   92.7029   -1.4392 C.ar    1  UNL1        0.0159
     52 C          58.6308   93.3796   -2.7777 C.ar    1  UNL1        0.0154
     53 C          59.8929   93.9622   -3.3413 C.ar    1  UNL1        0.0416
     54 N          59.8744   94.6389   -4.6798 N.pl3   1  UNL1       -0.3570
     55 C          61.1738   93.8680   -2.5662 C.ar    1  UNL1        0.0154
     56 C          61.1924   93.1913   -1.2277 C.ar    1  UNL1        0.0159
     57 H          59.0338   94.7008   -5.1885 H       1  UNL1        0.1424
     58 H          60.7028   95.0213   -5.0496 H       1  UNL1        0.1424
     59 C          64.2255   93.2454   11.0606 C.3     1  UNL1        0.1177
     60 C          65.2641   94.1252   10.4303 C.ar    1  UNL1       -0.0025
     61 C          65.0707   95.6124   10.4025 C.ar    1  UNL1       -0.0026
     62 C          66.1093   96.4922    9.7721 C.ar    1  UNL1       -0.0003
     63 C          67.3413   95.8847    9.1695 C.ar    1  UNL1       -0.0000
     64 C          67.5347   94.3975    9.1973 C.ar    1  UNL1       -0.0003
     65 C          66.4962   93.5177    9.8276 C.ar    1  UNL1       -0.0026
@<TRIPOS>BOND
     1    18    19    2
     2    19    17    1
     3    17     1    1
     4     1     2    1
     5     2     3    1
     6     3     4    2
     7     3     5   am
     8     5     6    1
     9     6    20    1
    10    20    21    1
    11    21    22   ar
    12    22    23   ar
    13    23    24   ar
    14    24    25    1
    15    24    26   ar
    16    26    27   ar
    17     6     7    1
    18     7     8    2
    19     7     9   am
    20     9    29    1
    21    29    30    1
    22    30    31   ar
    23    31    32   ar
    24    32    33   ar
    25    33    34   ar
    26    34    35   ar
    27    35    40    1
    28    40    41   ar
    29    41    42   ar
    30    42    43   ar
    31    43    46    1
    32    46    47    2
    33    46    48   am
    34    48    50    1
    35    50    51   ar
    36    51    52   ar
    37    52    53   ar
    38    53    54    1
    39    53    55   ar
    40    55    56   ar
    41    43    44   ar
    42    44    45   ar
    43    35    36   ar
    44    36    37   ar
    45    37    38    1
    46    37    39   ar
    47     9    10    1
    48    11    10    1
    49    11    12    1
    50    12    13   am
    51    13    14    2
    52    13    15   am
    53    15    59    1
    54    59    60    1
    55    60    61   ar
    56    61    62   ar
    57    62    63   ar
    58    63    64   ar
    59    64    65   ar
    60    12     1    1
    61    65    60   ar
    62    11     5    1
    63    27    21   ar
    64    39    30   ar
    65    39    34   ar
    66    45    40   ar
    67    56    50   ar
    68    25    28    1
    69    48    49    1
    70    54    57    1
    71    54    58    1
    72    15    16    1
@<TRIPOS>MOLECULE
*****
 65 72 0 0 0
SMALL
GASTEIGER

@<TRIPOS>ATOM
      1 N          65.5726   89.2616   14.5086 N.3     1  UNL1       -0.1862
      2 C          65.8320   88.0038   15.2835 C.3     1  UNL1        0.1775
      3 C          64.9974   86.7829   15.0329 C.2     1  UNL1        0.2452
      4 O          65.2569   85.5250   15.8078 O.2     1  UNL1       -0.2732
      5 N          63.9033   86.8198   14.0075 N.am    1  UNL1       -0.2541
      6 C          63.0687   85.5989   13.7569 C.3     1  UNL1        0.1577
      7 C          61.9746   85.6358   12.7315 C.2     1  UNL1        0.2445
      8 O          61.1400   84.4149   12.4809 O.2     1  UNL1       -0.2731
      9 N          61.7151   86.8937   11.9565 N.am    1  UNL1       -0.2705
     10 C          62.5497   88.1146   12.2071 C.3     1  UNL1        0.1359
     11 C          63.6439   88.0777   13.2326 C.3     1  UNL1        0.1908
     12 N          64.4785   89.2986   13.4832 N.am    1  UNL1       -0.1863
     13 C          64.2190   90.5565   12.7082 C.2     1  UNL1        0.3191
     14 O          63.1249   90.5934   11.6828 O.2     1  UNL1       -0.2512
     15 N          65.0536   91.7774   12.9588 N.am    1  UNL1       -0.2836
     16 H          65.7717   91.7531   13.6318 H       1  UNL1        0.1513
     17 C          66.4072   90.4826   14.7592 C.3     1  UNL1        0.1188
     18 C          66.7908   92.6955   16.0651 C.2     1  UNL1       -0.0034
     19 C          65.8815   91.5845   15.6305 C.2     1  UNL1       -0.0071
     20 C          63.3282   84.3411   14.5318 C.3     1  UNL1        0.0556
     21 C          63.1339   83.0046   13.8791 C.ar    1  UNL1       -0.0198
     22 C          63.9730   82.6178   12.6975 C.ar    1  UNL1       -0.0011
     23 C          63.7788   81.2813   12.0449 C.ar    1  UNL1        0.0363
     24 C          62.7453   80.3315   12.5738 C.ar    1  UNL1        0.1337
     25 O          62.5510   78.9950   11.9211 O.3     1  UNL1       -0.5055
     26 C          61.9061   80.7182   13.7555 C.ar    1  UNL1        0.0363
     27 C          62.1004   82.0547   14.4081 C.ar    1  UNL1       -0.0011
     28 H          63.0752   78.7534   11.1830 H       1  UNL1        0.2922
     29 C          60.6210   86.9307   10.9311 C.3     1  UNL1        0.1217
     30 C          60.3151   88.2079   10.2064 C.ar    1  UNL1        0.0135
     31 C          59.9509   89.4404   10.9799 C.ar    1  UNL1       -0.0012
     32 C          59.6450   90.7176   10.2552 C.ar    1  UNL1       -0.0002
     33 C          59.7033   90.7623    8.7571 C.ar    1  UNL1        0.0015
     34 C          60.0675   89.5298    7.9835 C.ar    1  UNL1        0.0170
     35 C          60.2049   89.2723    6.5122 C.ar    1  UNL1        0.0186
     36 C          60.5958   87.8359    6.3276 C.ar    1  UNL1        0.0759
     37 N          60.6999   87.2058    7.6847 N.ar    1  UNL1       -0.3242
     38 C          61.0662   85.7792    7.9686 C.3     1  UNL1        0.1305
     39 C          60.3734   88.2526    8.7082 C.ar    1  UNL1        0.0575
     40 C          59.9893   90.2751    5.4177 C.ar    1  UNL1        0.0015
     41 C          61.1460   90.7278    4.5767 C.ar    1  UNL1        0.0002
     42 C          60.9304   91.7306    3.4823 C.ar    1  UNL1        0.0045
     43 C          59.5582   92.2807    3.2287 C.ar    1  UNL1        0.0537
     44 C          58.4015   91.8280    4.0697 C.ar    1  UNL1        0.0045
     45 C          58.6171   90.8253    5.1641 C.ar    1  UNL1        0.0002
     46 C          59.3426   93.2835    2.1342 C.2     1  UNL1        0.2495
     47 O          59.6704   94.7287    2.3660 O.2     1  UNL1       -0.2698
     48 N          58.7993   92.8411    0.8079 N.am    1  UNL1       -0.2804
     49 H          58.5841   91.8925    0.6557 H       1  UNL1        0.1552
     50 C          58.5838   93.8439   -0.2865 C.ar    1  UNL1        0.0506
     51 C          57.1905   94.2068   -0.7075 C.ar    1  UNL1        0.0159
     52 C          56.9749   95.2096   -1.8019 C.ar    1  UNL1        0.0154
     53 C          58.1525   95.8496   -2.4754 C.ar    1  UNL1        0.0416
     54 N          57.9370   96.8525   -3.5698 N.pl3   1  UNL1       -0.3570
     55 C          59.5458   95.4867   -2.0544 C.ar    1  UNL1        0.0154
     56 C          59.7614   94.4839   -0.9600 C.ar    1  UNL1        0.0159
     57 H          57.0226   97.0907   -3.8461 H       1  UNL1        0.1424
     58 H          58.7100   97.2725   -4.0118 H       1  UNL1        0.1424
     59 C          64.7941   93.0352   12.1839 C.3     1  UNL1        0.1177
     60 C          65.7706   93.4872   11.1389 C.ar    1  UNL1       -0.0025
     61 C          66.8271   92.5455   10.6422 C.ar    1  UNL1       -0.0026
     62 C          67.8036   92.9975    9.5972 C.ar    1  UNL1       -0.0003
     63 C          67.7236   94.3913    9.0487 C.ar    1  UNL1       -0.0000
     64 C          66.6670   95.3332    9.5454 C.ar    1  UNL1       -0.0003
     65 C          65.6905   94.8812   10.5905 C.ar    1  UNL1       -0.0026
@<TRIPOS>BOND
     1    18    19    2
     2    19    17    1
     3    17     1    1
     4     1     2    1
     5     2     3    1
     6     3     4    2
     7     3     5   am
     8     5     6    1
     9     6    20    1
    10    20    21    1
    11    21    22   ar
    12    22    23   ar
    13    23    24   ar
    14    24    25    1
    15    24    26   ar
    16    26    27   ar
    17     6     7    1
    18     7     8    2
    19     7     9   am
    20     9    29    1
    21    29    30    1
    22    30    31   ar
    23    31    32   ar
    24    32    33   ar
    25    33    34   ar
    26    34    35   ar
    27    35    40    1
    28    40    41   ar
    29    41    42   ar
    30    42    43   ar
    31    43    46    1
    32    46    47    2
    33    46    48   am
    34    48    50    1
    35    50    51   ar
    36    51    52   ar
    37    52    53   ar
    38    53    54    1
    39    53    55   ar
    40    55    56   ar
    41    43    44   ar
    42    44    45   ar
    43    35    36   ar
    44    36    37   ar
    45    37    38    1
    46    37    39   ar
    47     9    10    1
    48    11    10    1
    49    11    12    1
    50    12    13   am
    51    13    14    2
    52    13    15   am
    53    15    59    1
    54    59    60    1
    55    60    61   ar
    56    61    62   ar
    57    62    63   ar
    58    63    64   ar
    59    64    65   ar
    60    12     1    1
    61    65    60   ar
    62    11     5    1
    63    27    21   ar
    64    39    30   ar
    65    39    34   ar
    66    45    40   ar
    67    56    50   ar
    68    25    28    1
    69    48    49    1
    70    54    57    1
    71    54    58    1
    72    15    16    1
