@<TRIPOS>MOLECULE
*****
 36 40 0 0 0
SMALL
GASTEIGER

@<TRIPOS>ATOM
      1 N          62.7466   89.8939   10.7698 N.pl3   1  UNL1       -0.2740
      2 C          63.3463   91.2392   10.4858 C.3     1  UNL1        0.1079
      3 C          64.2226   91.6101   11.6453 C.3     1  UNL1        0.1498
      4 C          65.0660   92.8199   11.9192 C.2     1  UNL1        0.2919
      5 O          65.1242   93.9359   10.9186 O.2     1  UNL1       -0.2563
      6 N          65.8512   92.9138   13.1939 N.am    1  UNL1       -0.1449
      7 C          66.6947   94.1236   13.4678 C.3     1  UNL1        0.2159
      8 C          65.7931   91.7979   14.1945 C.2     1  UNL1        0.3728
      9 N          66.5783   91.8917   15.4691 N.2     1  UNL1       -0.1329
     10 N          64.9497   90.5881   13.9205 N.pl3   1  UNL1       -0.2247
     11 C          64.1645   90.4942   12.6460 C.3     1  UNL1        0.1559
     12 C          63.2522   89.4335   12.1049 C.3     1  UNL1        0.1327
     13 H          67.1319   92.6857   15.6489 H       1  UNL1        0.3058
     14 H          64.9115   89.8557   14.5773 H       1  UNL1        0.2454
     15 C          61.1849   86.9809    8.5731 C.ar    1  UNL1        0.0907
     16 N          62.1252   87.7337    9.4671 N.ar    1  UNL1       -0.2157
     17 C          61.8063   89.1412    9.8758 C.ar    1  UNL1        0.2201
     18 N          60.5471   89.7961    9.3904 N.ar    1  UNL1       -0.2097
     19 C          59.6068   89.0433    8.4964 C.ar    1  UNL1        0.1326
     20 C          59.9257   87.6357    8.0877 C.ar    1  UNL1        0.1727
     21 F          58.9854   86.8830    7.1937 F       1  UNL1       -0.2013
     22 C          62.9293   85.1076    8.1280 C.3     1  UNL1        0.0068
     23 C          61.5039   85.5733    8.1644 C.3     1  UNL1        0.0483
     24 C          64.0083   89.3057   13.5477 C.ar    1  UNL1        0.0397
     25 C          63.8449   87.8809   13.1081 C.ar    1  UNL1        0.0057
     26 C          63.7238   87.0279   14.3360 C.ar    1  UNL1        0.0068
     27 C          63.8124   87.9256   15.5345 C.ar    1  UNL1        0.0352
     28 S          63.9882   89.3333   15.0473 S.2     1  UNL1       -0.0878
     29 C          63.5454   85.5388   14.3610 C.ar    1  UNL1        0.0012
     30 C          63.2990   84.8347   15.6625 C.ar    1  UNL1        0.0001
     31 C          63.1207   83.3456   15.6875 C.ar    1  UNL1        0.0007
     32 C          63.1886   82.5606   14.4111 C.ar    1  UNL1        0.0103
     33 C          63.4349   83.2646   13.1098 C.ar    1  UNL1        0.0684
     34 C          63.6133   84.7537   13.0847 C.ar    1  UNL1        0.0103
     35 C          63.5028   82.4795   11.8334 C.1     1  UNL1        0.1004
     36 N          63.5708   81.6944   10.5571 N.1     1  UNL1       -0.1908
@<TRIPOS>BOND
     1    22    23    1
     2    23    15    1
     3    15    16   ar
     4    16    17   ar
     5    17     1    1
     6     1     2    1
     7     3     2    1
     8     3     4    1
     9     4     5    2
    10     4     6   am
    11     6     7    1
    12     6     8    1
    13     8     9    2
    14     8    10    1
    15    10    11    1
    16    11    24    1
    17    24    25   ar
    18    25    26   ar
    19    26    29    1
    20    29    30   ar
    21    30    31   ar
    22    31    32   ar
    23    32    33   ar
    24    33    35    1
    25    35    36    3
    26    33    34   ar
    27    26    27   ar
    28    27    28   ar
    29    11    12    1
    30    17    18   ar
    31    18    19   ar
    32    19    20   ar
    33    20    21    1
    34    20    15   ar
    35    12     1    1
    36    11     3    1
    37    28    24   ar
    38    34    29   ar
    39     9    13    1
    40    10    14    1
@<TRIPOS>MOLECULE
*****
 36 40 0 0 0
SMALL
GASTEIGER

@<TRIPOS>ATOM
      1 N          62.5544   89.6261   10.6720 N.pl3   1  UNL1       -0.2740
      2 C          63.1130   90.9823   10.3581 C.3     1  UNL1        0.1079
      3 C          64.0305   91.3761   11.4775 C.3     1  UNL1        0.1498
      4 C          64.8594   92.6043   11.7109 C.2     1  UNL1        0.2919
      5 O          64.8510   93.7172   10.7051 O.2     1  UNL1       -0.2563
      6 N          65.6967   92.7196   12.9502 N.am    1  UNL1       -0.1449
      7 C          66.5256   93.9479   13.1836 C.3     1  UNL1        0.2159
      8 C          65.7050   91.6069   13.9559 C.2     1  UNL1        0.3728
      9 N          66.5423   91.7223   15.1952 N.2     1  UNL1       -0.1329
     10 N          64.8761   90.3787   13.7225 N.pl3   1  UNL1       -0.2247
     11 C          64.0388   90.2633   12.4833 C.3     1  UNL1        0.1559
     12 C          63.1265   89.1817   11.9855 C.3     1  UNL1        0.1327
     13 H          67.0863   92.5283   15.3485 H       1  UNL1        0.3058
     14 H          64.8816   89.6484   14.3827 H       1  UNL1        0.2454
     15 C          59.7775   88.7867    7.9637 C.ar    1  UNL1        0.0907
     16 N          60.7395   89.5623    8.8140 N.ar    1  UNL1       -0.2157
     17 C          61.5924   88.8504    9.8218 C.ar    1  UNL1        0.2201
     18 N          61.4833   87.3627    9.9794 N.ar    1  UNL1       -0.2097
     19 C          60.5213   86.5870    9.1291 C.ar    1  UNL1        0.1326
     20 C          59.6684   87.2990    8.1213 C.ar    1  UNL1        0.1727
     21 F          58.7064   86.5232    7.2711 F       1  UNL1       -0.2013
     22 C          59.5626   90.1853    5.7848 C.3     1  UNL1        0.0068
     23 C          58.9247   89.4987    6.9560 C.3     1  UNL1        0.0483
     24 C          63.9466   89.0756   13.3947 C.ar    1  UNL1        0.0397
     25 C          63.6896   87.6590   12.9736 C.ar    1  UNL1        0.0057
     26 C          63.6793   86.8037   14.2059 C.ar    1  UNL1        0.0068
     27 C          63.9300   87.6917   15.3885 C.ar    1  UNL1        0.0352
     28 S          64.0952   89.0958   14.8872 S.2     1  UNL1       -0.0878
     29 C          63.4573   85.3209   14.2481 C.ar    1  UNL1        0.0012
     30 C          63.1709   84.6423   15.5549 C.ar    1  UNL1        0.0001
     31 C          62.9489   83.1594   15.5970 C.ar    1  UNL1        0.0007
     32 C          63.0134   82.3551   14.3325 C.ar    1  UNL1        0.0103
     33 C          63.2998   83.0337   13.0258 C.ar    1  UNL1        0.0684
     34 C          63.5217   84.5166   12.9836 C.ar    1  UNL1        0.0103
     35 C          63.3642   82.2294   11.7613 C.1     1  UNL1        0.1004
     36 N          63.4286   81.4251   10.4968 N.1     1  UNL1       -0.1908
@<TRIPOS>BOND
     1    22    23    1
     2    23    15    1
     3    15    16   ar
     4    16    17   ar
     5    17     1    1
     6     1     2    1
     7     3     2    1
     8     3     4    1
     9     4     5    2
    10     4     6   am
    11     6     7    1
    12     6     8    1
    13     8     9    2
    14     8    10    1
    15    10    11    1
    16    11    24    1
    17    24    25   ar
    18    25    26   ar
    19    26    29    1
    20    29    30   ar
    21    30    31   ar
    22    31    32   ar
    23    32    33   ar
    24    33    35    1
    25    35    36    3
    26    33    34   ar
    27    26    27   ar
    28    27    28   ar
    29    11    12    1
    30    17    18   ar
    31    18    19   ar
    32    19    20   ar
    33    20    21    1
    34    20    15   ar
    35    12     1    1
    36    11     3    1
    37    28    24   ar
    38    34    29   ar
    39     9    13    1
    40    10    14    1
@<TRIPOS>MOLECULE
*****
 36 40 0 0 0
SMALL
GASTEIGER

@<TRIPOS>ATOM
      1 N          63.0747   90.3791   10.7873 N.pl3   1  UNL1       -0.2740
      2 C          63.6999   91.5043   10.0172 C.3     1  UNL1        0.1079
      3 C          64.5254   92.3161   10.9708 C.3     1  UNL1        0.1498
      4 C          65.3670   93.5425   10.7769 C.2     1  UNL1        0.2919
      5 O          65.4820   94.1661    9.4175 O.2     1  UNL1       -0.2563
      6 N          66.0937   94.1454   11.9426 N.am    1  UNL1       -0.1449
      7 C          66.9353   95.3719   11.7487 C.3     1  UNL1        0.2159
      8 C          65.9787   93.5219   13.3019 C.2     1  UNL1        0.3728
      9 N          66.7054   94.1248   14.4675 N.2     1  UNL1       -0.1329
     10 N          65.1372   92.2955   13.4958 N.pl3   1  UNL1       -0.2247
     11 C          64.4105   91.6925   12.3303 C.3     1  UNL1        0.1559
     12 C          63.5139   90.4954   12.2168 C.3     1  UNL1        0.1327
     13 H          67.2578   94.9297   14.3403 H       1  UNL1        0.3058
     14 H          65.0617   91.8862   14.3880 H       1  UNL1        0.2454
     15 C          61.4768   86.8266   10.0273 C.ar    1  UNL1        0.0907
     16 N          62.3822   87.8829   10.5883 N.ar    1  UNL1       -0.2157
     17 C          62.1693   89.3229   10.2263 C.ar    1  UNL1        0.2201
     18 N          61.0509   89.7067    9.3033 N.ar    1  UNL1       -0.2097
     19 C          60.1455   88.6504    8.7424 C.ar    1  UNL1        0.1326
     20 C          60.3584   87.2104    9.1044 C.ar    1  UNL1        0.1727
     21 F          59.4530   86.1542    8.5434 F       1  UNL1       -0.2013
     22 C          62.4095   85.0304   11.6563 C.3     1  UNL1        0.0068
     23 C          61.6899   85.3867   10.3894 C.3     1  UNL1        0.0483
     24 C          64.2016   90.9620   13.6236 C.ar    1  UNL1        0.0397
     25 C          63.9552   89.4902   13.7749 C.ar    1  UNL1        0.0057
     26 C          63.8036   89.1936   15.2376 C.ar    1  UNL1        0.0068
     27 C          63.9564   90.4821   15.9901 C.ar    1  UNL1        0.0352
     28 S          64.2023   91.5751   14.9926 S.2     1  UNL1       -0.0878
     29 C          63.5448   87.8452   15.8415 C.ar    1  UNL1        0.0012
     30 C          62.9491   87.7401   17.2142 C.ar    1  UNL1        0.0001
     31 C          62.6903   86.3917   17.8182 C.ar    1  UNL1        0.0007
     32 C          63.0271   85.1484   17.0495 C.ar    1  UNL1        0.0103
     33 C          63.6228   85.2535   15.6769 C.ar    1  UNL1        0.0684
     34 C          63.8816   86.6019   15.0729 C.ar    1  UNL1        0.0103
     35 C          63.9596   84.0102   14.9083 C.1     1  UNL1        0.1004
     36 N          64.2965   82.7669   14.1396 N.1     1  UNL1       -0.1908
@<TRIPOS>BOND
     1    22    23    1
     2    23    15    1
     3    15    16   ar
     4    16    17   ar
     5    17     1    1
     6     1     2    1
     7     3     2    1
     8     3     4    1
     9     4     5    2
    10     4     6   am
    11     6     7    1
    12     6     8    1
    13     8     9    2
    14     8    10    1
    15    10    11    1
    16    11    24    1
    17    24    25   ar
    18    25    26   ar
    19    26    29    1
    20    29    30   ar
    21    30    31   ar
    22    31    32   ar
    23    32    33   ar
    24    33    35    1
    25    35    36    3
    26    33    34   ar
    27    26    27   ar
    28    27    28   ar
    29    11    12    1
    30    17    18   ar
    31    18    19   ar
    32    19    20   ar
    33    20    21    1
    34    20    15   ar
    35    12     1    1
    36    11     3    1
    37    28    24   ar
    38    34    29   ar
    39     9    13    1
    40    10    14    1
@<TRIPOS>MOLECULE
*****
 36 40 0 0 0
SMALL
GASTEIGER

@<TRIPOS>ATOM
      1 N          62.2000   85.7699   11.4573 N.pl3   1  UNL1       -0.2740
      2 C          61.5250   85.2496   10.2230 C.3     1  UNL1        0.1079
      3 C          60.9894   86.4235    9.4580 C.3     1  UNL1        0.1498
      4 C          60.2329   86.5190    8.1663 C.2     1  UNL1        0.2919
      5 O          59.8888   85.2733    7.4046 O.2     1  UNL1       -0.2563
      6 N          59.8204   87.8602    7.6361 N.am    1  UNL1       -0.1449
      7 C          59.0638   87.9558    6.3443 C.3     1  UNL1        0.2159
      8 C          60.1645   89.1058    8.3976 C.2     1  UNL1        0.3728
      9 N          59.7520   90.4471    7.8675 N.2     1  UNL1       -0.1329
     10 N          60.9210   89.0103    9.6893 N.pl3   1  UNL1       -0.2247
     11 C          61.3335   87.6691   10.2195 C.3     1  UNL1        0.1559
     12 C          62.0817   87.2652   11.4552 C.3     1  UNL1        0.1327
     13 H          59.2555   90.5098    7.0197 H       1  UNL1        0.3058
     14 H          61.1468   89.8279   10.1891 H       1  UNL1        0.2454
     15 C          63.5325   82.6142   13.4616 C.ar    1  UNL1        0.0907
     16 N          62.8576   83.4438   12.4098 N.ar    1  UNL1       -0.2157
     17 C          62.8750   84.9404   12.5092 C.ar    1  UNL1        0.2201
     18 N          63.5673   85.6075   13.6606 N.ar    1  UNL1       -0.2097
     19 C          64.2422   84.7779   14.7124 C.ar    1  UNL1        0.1326
     20 C          64.2248   83.2814   14.6130 C.ar    1  UNL1        0.1727
     21 F          64.8998   82.4519   15.6648 F       1  UNL1       -0.2013
     22 C          62.2090   80.3801   13.3778 C.3     1  UNL1        0.0068
     23 C          63.5151   81.1177   13.3621 C.3     1  UNL1        0.0483
     24 C          61.7462   88.8213   11.0868 C.ar    1  UNL1        0.0397
     25 C          63.1443   89.3351   11.2636 C.ar    1  UNL1        0.0057
     26 C          63.0955   90.4933   12.2157 C.ar    1  UNL1        0.0068
     27 C          61.6673   90.6952   12.6272 C.ar    1  UNL1        0.0352
     28 S          60.8334   89.6618   11.9295 S.2     1  UNL1       -0.0878
     29 C          64.2689   91.3067   12.6755 C.ar    1  UNL1        0.0012
     30 C          64.8851   91.0424   14.0173 C.ar    1  UNL1        0.0001
     31 C          66.0585   91.8558   14.4771 C.ar    1  UNL1        0.0007
     32 C          66.6158   92.9335   13.5951 C.ar    1  UNL1        0.0103
     33 C          65.9996   93.1978   12.2533 C.ar    1  UNL1        0.0684
     34 C          64.8262   92.3845   11.7934 C.ar    1  UNL1        0.0103
     35 C          66.5569   94.2756   11.3713 C.1     1  UNL1        0.1004
     36 N          67.1142   95.3533   10.4892 N.1     1  UNL1       -0.1908
@<TRIPOS>BOND
     1    22    23    1
     2    23    15    1
     3    15    16   ar
     4    16    17   ar
     5    17     1    1
     6     1     2    1
     7     3     2    1
     8     3     4    1
     9     4     5    2
    10     4     6   am
    11     6     7    1
    12     6     8    1
    13     8     9    2
    14     8    10    1
    15    10    11    1
    16    11    24    1
    17    24    25   ar
    18    25    26   ar
    19    26    29    1
    20    29    30   ar
    21    30    31   ar
    22    31    32   ar
    23    32    33   ar
    24    33    35    1
    25    35    36    3
    26    33    34   ar
    27    26    27   ar
    28    27    28   ar
    29    11    12    1
    30    17    18   ar
    31    18    19   ar
    32    19    20   ar
    33    20    21    1
    34    20    15   ar
    35    12     1    1
    36    11     3    1
    37    28    24   ar
    38    34    29   ar
    39     9    13    1
    40    10    14    1
@<TRIPOS>MOLECULE
*****
 36 40 0 0 0
SMALL
GASTEIGER

@<TRIPOS>ATOM
      1 N          64.2133   88.5206   14.2947 N.pl3   1  UNL1       -0.2740
      2 C          65.1261   89.4072   15.0889 C.3     1  UNL1        0.1079
      3 C          65.3124   90.6843   14.3245 C.3     1  UNL1        0.1498
      4 C          66.1053   91.9232   14.6182 C.2     1  UNL1        0.2919
      5 O          66.9030   92.0206   15.8848 O.2     1  UNL1       -0.2563
      6 N          66.1005   93.0649   13.6452 N.am    1  UNL1       -0.1449
      7 C          66.8934   94.3039   13.9389 C.3     1  UNL1        0.2159
      8 C          65.3029   92.9676   12.3787 C.2     1  UNL1        0.3728
      9 N          65.2981   94.1092   11.4057 N.2     1  UNL1       -0.1329
     10 N          64.5100   91.7286   12.0850 N.pl3   1  UNL1       -0.2247
     11 C          64.5147   90.5870   13.0579 C.3     1  UNL1        0.1559
     12 C          63.8355   89.2497   13.0395 C.3     1  UNL1        0.1327
     13 H          65.8185   94.9224   11.5984 H       1  UNL1        0.3058
     14 H          63.9865   91.6647   11.2537 H       1  UNL1        0.2454
     15 C          63.1076   84.7183   14.0291 C.ar    1  UNL1        0.0907
     16 N          63.5627   86.0928   13.6370 N.ar    1  UNL1       -0.2157
     17 C          63.7583   87.1461   14.6869 C.ar    1  UNL1        0.2201
     18 N          63.4989   86.8249   16.1290 N.ar    1  UNL1       -0.2097
     19 C          63.0438   85.4504   16.5210 C.ar    1  UNL1        0.1326
     20 C          62.8482   84.3971   15.4711 C.ar    1  UNL1        0.1727
     21 F          62.3931   83.0227   15.8633 F       1  UNL1       -0.2013
     22 C          62.7623   84.0596   11.5397 C.3     1  UNL1        0.0068
     23 C          62.9120   83.6651   12.9791 C.3     1  UNL1        0.0483
     24 C          63.6739   90.3465   11.8393 C.ar    1  UNL1        0.0397
     25 C          62.9463   89.0777   11.5065 C.ar    1  UNL1        0.0057
     26 C          62.2357   89.2796   10.2009 C.ar    1  UNL1        0.0068
     27 C          62.5242   90.6732    9.7269 C.ar    1  UNL1        0.0352
     28 S          63.4130   91.3325   10.7395 S.2     1  UNL1       -0.0878
     29 C          61.3859   88.2659    9.4936 C.ar    1  UNL1        0.0012
     30 C          59.8930   88.3109    9.6325 C.ar    1  UNL1        0.0001
     31 C          59.0432   87.2972    8.9252 C.ar    1  UNL1        0.0007
     32 C          59.6862   86.2386    8.0792 C.ar    1  UNL1        0.0103
     33 C          61.1791   86.1937    7.9404 C.ar    1  UNL1        0.0684
     34 C          62.0290   87.2073    8.6476 C.ar    1  UNL1        0.0103
     35 C          61.8221   85.1350    7.0943 C.1     1  UNL1        0.1004
     36 N          62.4652   84.0764    6.2482 N.1     1  UNL1       -0.1908
@<TRIPOS>BOND
     1    22    23    1
     2    23    15    1
     3    15    16   ar
     4    16    17   ar
     5    17     1    1
     6     1     2    1
     7     3     2    1
     8     3     4    1
     9     4     5    2
    10     4     6   am
    11     6     7    1
    12     6     8    1
    13     8     9    2
    14     8    10    1
    15    10    11    1
    16    11    24    1
    17    24    25   ar
    18    25    26   ar
    19    26    29    1
    20    29    30   ar
    21    30    31   ar
    22    31    32   ar
    23    32    33   ar
    24    33    35    1
    25    35    36    3
    26    33    34   ar
    27    26    27   ar
    28    27    28   ar
    29    11    12    1
    30    17    18   ar
    31    18    19   ar
    32    19    20   ar
    33    20    21    1
    34    20    15   ar
    35    12     1    1
    36    11     3    1
    37    28    24   ar
    38    34    29   ar
    39     9    13    1
    40    10    14    1
@<TRIPOS>MOLECULE
*****
 36 40 0 0 0
SMALL
GASTEIGER

@<TRIPOS>ATOM
      1 N          62.1862   85.8994   11.3408 N.pl3   1  UNL1       -0.2740
      2 C          61.4582   85.3501   10.1498 C.3     1  UNL1        0.1079
      3 C          60.9293   86.5074    9.3556 C.3     1  UNL1        0.1498
      4 C          60.1343   86.5731    8.0853 C.2     1  UNL1        0.2919
      5 O          59.7332   85.3086    7.3851 O.2     1  UNL1       -0.2563
      6 N          59.7403   87.9035    7.5151 N.am    1  UNL1       -0.1449
      7 C          58.9452   87.9692    6.2448 C.3     1  UNL1        0.2159
      8 C          60.1413   89.1679    8.2152 C.2     1  UNL1        0.3728
      9 N          59.7473   90.4983    7.6451 N.2     1  UNL1       -0.1329
     10 N          60.9363   89.1022    9.4855 N.pl3   1  UNL1       -0.2247
     11 C          61.3303   87.7720   10.0557 C.3     1  UNL1        0.1559
     12 C          62.1071   87.3962   11.2826 C.3     1  UNL1        0.1327
     13 H          59.2255   90.5415    6.8113 H       1  UNL1        0.3058
     14 H          61.1995   89.9322    9.9450 H       1  UNL1        0.2454
     15 C          63.8497   84.9020   14.8032 C.ar    1  UNL1        0.0907
     16 N          63.1632   85.7079   13.7405 N.ar    1  UNL1       -0.2157
     17 C          62.8727   85.0934   12.4034 C.ar    1  UNL1        0.2201
     18 N          63.2686   83.6729   12.1288 N.ar    1  UNL1       -0.2097
     19 C          63.9551   82.8670   13.1915 C.ar    1  UNL1        0.1326
     20 C          64.2457   83.4815   14.5287 C.ar    1  UNL1        0.1727
     21 F          64.9321   82.6755   15.5913 F       1  UNL1       -0.2013
     22 C          63.0177   86.0491   16.9808 C.3     1  UNL1        0.0068
     23 C          64.1402   85.5166   16.1403 C.3     1  UNL1        0.0483
     24 C          61.8009   88.9453   10.8630 C.ar    1  UNL1        0.0397
     25 C          63.1374   89.6161   10.7470 C.ar    1  UNL1        0.0057
     26 C          63.1801   90.7393   11.7404 C.ar    1  UNL1        0.0068
     27 C          61.8699   90.7626   12.4703 C.ar    1  UNL1        0.0352
     28 S          61.0175   89.6538   11.9280 S.2     1  UNL1       -0.0878
     29 C          64.3310   91.6749   11.9645 C.ar    1  UNL1        0.0012
     30 C          64.8929   92.4609   10.8171 C.ar    1  UNL1        0.0001
     31 C          66.0438   93.3964   11.0412 C.ar    1  UNL1        0.0007
     32 C          66.6327   93.5460   12.4126 C.ar    1  UNL1        0.0103
     33 C          66.0707   92.7601   13.5600 C.ar    1  UNL1        0.0684
     34 C          64.9199   91.8245   13.3360 C.ar    1  UNL1        0.0103
     35 C          66.6596   92.9097   14.9314 C.1     1  UNL1        0.1004
     36 N          67.2485   93.0595   16.3029 N.1     1  UNL1       -0.1908
@<TRIPOS>BOND
     1    22    23    1
     2    23    15    1
     3    15    16   ar
     4    16    17   ar
     5    17     1    1
     6     1     2    1
     7     3     2    1
     8     3     4    1
     9     4     5    2
    10     4     6   am
    11     6     7    1
    12     6     8    1
    13     8     9    2
    14     8    10    1
    15    10    11    1
    16    11    24    1
    17    24    25   ar
    18    25    26   ar
    19    26    29    1
    20    29    30   ar
    21    30    31   ar
    22    31    32   ar
    23    32    33   ar
    24    33    35    1
    25    35    36    3
    26    33    34   ar
    27    26    27   ar
    28    27    28   ar
    29    11    12    1
    30    17    18   ar
    31    18    19   ar
    32    19    20   ar
    33    20    21    1
    34    20    15   ar
    35    12     1    1
    36    11     3    1
    37    28    24   ar
    38    34    29   ar
    39     9    13    1
    40    10    14    1
@<TRIPOS>MOLECULE
*****
 36 40 0 0 0
SMALL
GASTEIGER

@<TRIPOS>ATOM
      1 N          63.1261   89.9257   12.5917 N.pl3   1  UNL1       -0.2740
      2 C          62.3472   90.5486   11.4713 C.3     1  UNL1        0.1079
      3 C          61.7387   89.4437   10.6597 C.3     1  UNL1        0.1498
      4 C          60.8698   89.4579    9.4370 C.2     1  UNL1        0.2919
      5 O          60.4669   90.7636    8.8182 O.2     1  UNL1       -0.2563
      6 N          60.4037   88.1662    8.8332 N.am    1  UNL1       -0.1449
      7 C          59.5348   88.1804    7.6105 C.3     1  UNL1        0.2159
      8 C          60.8065   86.8606    9.4519 C.2     1  UNL1        0.3728
      9 N          60.3405   85.5690    8.8480 N.2     1  UNL1       -0.1329
     10 N          61.6754   86.8464   10.6745 N.pl3   1  UNL1       -0.2247
     11 C          62.1415   88.1379   11.2784 C.3     1  UNL1        0.1559
     12 C          62.9990   88.4358   12.4725 C.3     1  UNL1        0.1327
     13 H          59.7702   85.5782    8.0456 H       1  UNL1        0.3058
     14 H          61.9398   85.9894   11.0806 H       1  UNL1        0.2454
     15 C          65.9700   92.0598   14.3549 C.ar    1  UNL1        0.0907
     16 N          65.1991   91.3223   13.3003 N.ar    1  UNL1       -0.2157
     17 C          63.8969   90.6632   13.6463 C.ar    1  UNL1        0.2201
     18 N          63.3654   90.7415   15.0468 N.ar    1  UNL1       -0.2097
     19 C          64.1363   91.4790   16.1013 C.ar    1  UNL1        0.1326
     20 C          65.4385   92.1382   15.7553 C.ar    1  UNL1        0.1727
     21 F          66.2093   92.8756   16.8099 F       1  UNL1       -0.2013
     22 C          68.5266   92.3274   14.7322 C.3     1  UNL1        0.0068
     23 C          67.2722   92.7189   14.0088 C.3     1  UNL1        0.0483
     24 C          62.6227   86.9165   12.0040 C.ar    1  UNL1        0.0397
     25 C          62.1423   85.5129   11.7823 C.ar    1  UNL1        0.0057
     26 C          62.8915   84.6130   12.7200 C.ar    1  UNL1        0.0068
     27 C          63.8348   85.4605   13.5211 C.ar    1  UNL1        0.0352
     28 S          63.6687   86.8841   13.0786 S.2     1  UNL1       -0.0878
     29 C          62.7263   83.1267   12.8360 C.ar    1  UNL1        0.0012
     30 C          62.3932   82.5105   14.1625 C.ar    1  UNL1        0.0001
     31 C          62.2279   81.0241   14.2786 C.ar    1  UNL1        0.0007
     32 C          62.3958   80.1541   13.0683 C.ar    1  UNL1        0.0103
     33 C          62.7289   80.7703   11.7419 C.ar    1  UNL1        0.0684
     34 C          62.8942   82.2566   11.6258 C.ar    1  UNL1        0.0103
     35 C          62.8968   79.9001   10.5317 C.1     1  UNL1        0.1004
     36 N          63.0647   79.0299    9.3215 N.1     1  UNL1       -0.1908
@<TRIPOS>BOND
     1    22    23    1
     2    23    15    1
     3    15    16   ar
     4    16    17   ar
     5    17     1    1
     6     1     2    1
     7     3     2    1
     8     3     4    1
     9     4     5    2
    10     4     6   am
    11     6     7    1
    12     6     8    1
    13     8     9    2
    14     8    10    1
    15    10    11    1
    16    11    24    1
    17    24    25   ar
    18    25    26   ar
    19    26    29    1
    20    29    30   ar
    21    30    31   ar
    22    31    32   ar
    23    32    33   ar
    24    33    35    1
    25    35    36    3
    26    33    34   ar
    27    26    27   ar
    28    27    28   ar
    29    11    12    1
    30    17    18   ar
    31    18    19   ar
    32    19    20   ar
    33    20    21    1
    34    20    15   ar
    35    12     1    1
    36    11     3    1
    37    28    24   ar
    38    34    29   ar
    39     9    13    1
    40    10    14    1
@<TRIPOS>MOLECULE
*****
 36 40 0 0 0
SMALL
GASTEIGER

@<TRIPOS>ATOM
      1 N          62.9724   84.0588   14.4297 N.pl3   1  UNL1       -0.2740
      2 C          62.9592   82.6295   14.8844 C.3     1  UNL1        0.1079
      3 C          62.8878   81.7565   13.6667 C.3     1  UNL1        0.1498
      4 C          62.8469   80.2662   13.5012 C.2     1  UNL1        0.2919
      5 O          62.8778   79.3763   14.7084 O.2     1  UNL1       -0.2563
      6 N          62.7751   79.6658   12.1284 N.am    1  UNL1       -0.1449
      7 C          62.7343   78.1754   11.9629 C.3     1  UNL1        0.2159
      8 C          62.7443   80.5555   10.9213 C.2     1  UNL1        0.3728
      9 N          62.6725   79.9551    9.5485 N.2     1  UNL1       -0.1329
     10 N          62.7851   82.0458   11.0868 N.pl3   1  UNL1       -0.2247
     11 C          62.8569   82.6463   12.4595 C.3     1  UNL1        0.1559
     12 C          62.9092   84.0693   12.9311 C.3     1  UNL1        0.1327
     13 H          62.6457   78.9770    9.4399 H       1  UNL1        0.3058
     14 H          62.7649   82.6298   10.2945 H       1  UNL1        0.2454
     15 C          63.7066   87.7478   15.6957 C.ar    1  UNL1        0.0907
     16 N          63.6415   86.5407   14.8077 N.ar    1  UNL1       -0.2157
     17 C          63.0375   85.2660   15.3178 C.ar    1  UNL1        0.2201
     18 N          62.4984   85.1984   16.7160 N.ar    1  UNL1       -0.2097
     19 C          62.5635   86.4055   17.6040 C.ar    1  UNL1        0.1326
     20 C          63.1676   87.6802   17.0939 C.ar    1  UNL1        0.1727
     21 F          63.2326   88.8874   17.9820 F       1  UNL1       -0.2013
     22 C          64.0937   89.4376   13.7606 C.3     1  UNL1        0.0068
     23 C          64.3107   89.0225   15.1856 C.3     1  UNL1        0.0483
     24 C          62.8330   83.6574   11.3518 C.ar    1  UNL1        0.0397
     25 C          62.1092   84.9710   11.3726 C.ar    1  UNL1        0.0057
     26 C          62.3575   85.6580   10.0624 C.ar    1  UNL1        0.0068
     27 C          63.2348   84.7688    9.2319 C.ar    1  UNL1        0.0352
     28 S          63.5286   83.5324   10.0287 S.2     1  UNL1       -0.0878
     29 C          61.8225   86.9986    9.6545 C.ar    1  UNL1        0.0012
     30 C          60.5554   87.0893    8.8567 C.ar    1  UNL1        0.0001
     31 C          60.0204   88.4299    8.4488 C.ar    1  UNL1        0.0007
     32 C          60.7525   89.6798    8.8385 C.ar    1  UNL1        0.0103
     33 C          62.0195   89.5891    9.6362 C.ar    1  UNL1        0.0684
     34 C          62.5546   88.2485   10.0442 C.ar    1  UNL1        0.0103
     35 C          62.7515   90.8390   10.0260 C.1     1  UNL1        0.1004
     36 N          63.4834   92.0890   10.4158 N.1     1  UNL1       -0.1908
@<TRIPOS>BOND
     1    22    23    1
     2    23    15    1
     3    15    16   ar
     4    16    17   ar
     5    17     1    1
     6     1     2    1
     7     3     2    1
     8     3     4    1
     9     4     5    2
    10     4     6   am
    11     6     7    1
    12     6     8    1
    13     8     9    2
    14     8    10    1
    15    10    11    1
    16    11    24    1
    17    24    25   ar
    18    25    26   ar
    19    26    29    1
    20    29    30   ar
    21    30    31   ar
    22    31    32   ar
    23    32    33   ar
    24    33    35    1
    25    35    36    3
    26    33    34   ar
    27    26    27   ar
    28    27    28   ar
    29    11    12    1
    30    17    18   ar
    31    18    19   ar
    32    19    20   ar
    33    20    21    1
    34    20    15   ar
    35    12     1    1
    36    11     3    1
    37    28    24   ar
    38    34    29   ar
    39     9    13    1
    40    10    14    1
@<TRIPOS>MOLECULE
*****
 36 40 0 0 0
SMALL
GASTEIGER

@<TRIPOS>ATOM
      1 N          62.6353   89.0989   11.3330 N.pl3   1  UNL1       -0.2740
      2 C          61.6447   89.8954   10.5365 C.3     1  UNL1        0.1079
      3 C          60.9596   88.9622    9.5826 C.3     1  UNL1        0.1498
      4 C          59.8926   89.1855    8.5523 C.2     1  UNL1        0.2919
      5 O          59.3253   90.5586    8.3453 O.2     1  UNL1       -0.2563
      6 N          59.3928   88.0355    7.7289 N.am    1  UNL1       -0.1449
      7 C          58.3257   88.2587    6.6985 C.3     1  UNL1        0.2159
      8 C          59.9600   86.6625    7.9358 C.2     1  UNL1        0.3728
      9 N          59.4602   85.5125    7.1124 N.2     1  UNL1       -0.1329
     10 N          61.0270   86.4392    8.9661 N.pl3   1  UNL1       -0.2247
     11 C          61.5268   87.5891    9.7895 C.3     1  UNL1        0.1559
     12 C          62.5625   87.6736   10.8713 C.3     1  UNL1        0.1327
     13 H          58.7599   85.6590    6.4362 H       1  UNL1        0.3058
     14 H          61.3993   85.5380    9.1020 H       1  UNL1        0.2454
     15 C          65.1397   91.4840   13.2797 C.ar    1  UNL1        0.0907
     16 N          64.2350   90.9489   12.2095 N.ar    1  UNL1       -0.2157
     17 C          63.5399   89.6339   12.4032 C.ar    1  UNL1        0.2201
     18 N          63.7494   88.8539   13.6672 N.ar    1  UNL1       -0.2097
     19 C          64.6541   89.3890   14.7374 C.ar    1  UNL1        0.1326
     20 C          65.3492   90.7040   14.5437 C.ar    1  UNL1        0.1727
     21 F          66.2538   91.2390   15.6140 F       1  UNL1       -0.2013
     22 C          65.8765   93.4322   11.7268 C.3     1  UNL1        0.0068
     23 C          65.8347   92.7990   13.0859 C.3     1  UNL1        0.0483
     24 C          62.1855   86.2794   10.1072 C.ar    1  UNL1        0.0397
     25 C          61.9484   85.4477   11.3328 C.ar    1  UNL1        0.0057
     26 C          62.8133   84.2258   11.2382 C.ar    1  UNL1        0.0068
     27 C          63.5849   84.3023    9.9541 C.ar    1  UNL1        0.0352
     28 S          63.1969   85.5716    9.2552 S.2     1  UNL1       -0.0878
     29 C          62.8927   83.1212   12.2499 C.ar    1  UNL1        0.0012
     30 C          64.2204   82.7237   12.8237 C.ar    1  UNL1        0.0001
     31 C          64.2998   81.6192   13.8355 C.ar    1  UNL1        0.0007
     32 C          63.0514   80.9122   14.2735 C.ar    1  UNL1        0.0103
     33 C          61.7237   81.3098   13.6997 C.ar    1  UNL1        0.0684
     34 C          61.6443   82.4143   12.6880 C.ar    1  UNL1        0.0103
     35 C          60.4754   80.6028   14.1378 C.1     1  UNL1        0.1004
     36 N          59.2271   79.8958   14.5759 N.1     1  UNL1       -0.1908
@<TRIPOS>BOND
     1    22    23    1
     2    23    15    1
     3    15    16   ar
     4    16    17   ar
     5    17     1    1
     6     1     2    1
     7     3     2    1
     8     3     4    1
     9     4     5    2
    10     4     6   am
    11     6     7    1
    12     6     8    1
    13     8     9    2
    14     8    10    1
    15    10    11    1
    16    11    24    1
    17    24    25   ar
    18    25    26   ar
    19    26    29    1
    20    29    30   ar
    21    30    31   ar
    22    31    32   ar
    23    32    33   ar
    24    33    35    1
    25    35    36    3
    26    33    34   ar
    27    26    27   ar
    28    27    28   ar
    29    11    12    1
    30    17    18   ar
    31    18    19   ar
    32    19    20   ar
    33    20    21    1
    34    20    15   ar
    35    12     1    1
    36    11     3    1
    37    28    24   ar
    38    34    29   ar
    39     9    13    1
    40    10    14    1
