@<TRIPOS>MOLECULE
*****
 53 57 0 0 0
SMALL
GASTEIGER

@<TRIPOS>ATOM
      1 C          62.4687   86.8656   11.0680 C.3     1  UNL1        0.0760
      2 C          62.3991   89.0566   12.4625 C.2     1  UNL1        0.2424
      3 O          60.9762   89.2783   12.0432 O.2     1  UNL1       -0.2733
      4 N          63.1455   87.8502   11.9749 N.am    1  UNL1       -0.3042
      5 H          64.0794   87.7047   12.2502 H       1  UNL1        0.1494
      6 N          65.0832   92.7897   11.2393 N.am    1  UNL1       -0.2565
      7 C          65.3929   93.1750    9.8232 C.3     1  UNL1        0.1168
      8 C          64.2249   91.5920   11.5201 C.2     1  UNL1        0.3091
      9 O          63.6763   90.7796   10.3846 O.2     1  UNL1       -0.2523
     10 N          63.9151   91.2067   12.9362 N.am    1  UNL1       -0.2350
     11 C          64.3901   91.9190   14.1679 C.3     1  UNL1        0.2487
     12 S          63.8445   91.1939   15.3623 S.O2    1  UNL1        0.0114
     13 O          64.5745   92.2488   16.1394 O.2     1  UNL1       -0.1713
     14 O          63.4515   90.6893   16.7191 O.2     1  UNL1       -0.1713
     15 C          63.0323   90.0334   14.8688 C.3     1  UNL1        0.1819
     16 C          63.0759   90.0412   13.3694 C.3     1  UNL1        0.1781
     17 C          65.6317   93.6021   12.3748 C.3     1  UNL1        0.1413
     18 C          68.5257   92.8669   14.8546 C.ar    1  UNL1        0.0875
     19 N          67.3144   93.6542   14.4510 N.ar    1  UNL1       -0.2453
     20 C          66.8221   93.1093   13.1431 C.ar    1  UNL1        0.0858
     21 C          67.7289   91.9853   12.7384 C.ar    1  UNL1        0.0530
     22 S          68.7819   91.8353   13.7961 S.2     1  UNL1       -0.0705
     23 C          69.6025   91.9230   17.0224 C.3     1  UNL1        0.0069
     24 C          69.3381   93.0746   16.0983 C.3     1  UNL1        0.0465
     25 C          69.8862   94.4338   16.4179 C.3     1  UNL1        0.0069
     26 C          61.7685   85.6717   11.6462 C.3     1  UNL1        0.0216
     27 C          61.9991   84.3104   11.0600 C.3     1  UNL1        0.0217
     28 C          63.3205   83.6261   11.2496 C.3     1  UNL1        0.0792
     29 N          64.2548   84.0854   12.3295 N.am    1  UNL1       -0.2720
     30 C          64.0256   83.6611   13.7499 C.2     1  UNL1        0.4019
     31 O          62.8623   82.7776   14.0904 O.2     1  UNL1       -0.2264
     32 H          65.0183   84.6653   12.1060 H       1  UNL1        0.1527
     33 O          64.9599   84.1203   14.8298 O.3     1  UNL1       -0.4291
     34 C          64.8575   85.5174   15.3661 C.3     1  UNL1        0.2447
     35 C          63.6494   85.9322   16.1525 C.ar    1  UNL1        0.0714
     36 C          62.4262   85.0984   16.3950 C.ar    1  UNL1        0.1053
     37 N          61.4732   85.9045   17.2269 N.ar    1  UNL1       -0.2350
     38 C          62.1074   87.2364   17.4986 C.ar    1  UNL1        0.1343
     39 S          63.4523   87.2535   16.8346 S.2     1  UNL1       -0.0652
     40 C          63.7075   82.4827   10.3593 C.3     1  UNL1        0.0460
     41 C          63.2784   81.0867   10.7019 C.ar    1  UNL1       -0.0205
     42 C          63.1890   80.0444    9.6270 C.ar    1  UNL1       -0.0042
     43 C          62.7599   78.6486    9.9697 C.ar    1  UNL1       -0.0003
     44 C          62.4202   78.2951   11.3873 C.ar    1  UNL1       -0.0000
     45 C          62.5095   79.3374   12.4622 C.ar    1  UNL1       -0.0003
     46 C          62.9386   80.7333   12.1195 C.ar    1  UNL1       -0.0042
     47 C          62.4922   87.0749    9.5828 C.3     1  UNL1        0.0459
     48 C          61.2228   87.3942    8.8502 C.ar    1  UNL1       -0.0205
     49 C          60.7976   88.8217    8.6735 C.ar    1  UNL1       -0.0042
     50 C          59.5281   89.1410    7.9410 C.ar    1  UNL1       -0.0003
     51 C          58.6839   88.0327    7.3852 C.ar    1  UNL1       -0.0000
     52 C          59.1091   86.6051    7.5619 C.ar    1  UNL1       -0.0003
     53 C          60.3785   86.2858    8.2944 C.ar    1  UNL1       -0.0042
@<TRIPOS>BOND
     1    23    24    1
     2    24    25    1
     3    24    18    1
     4    18    19   ar
     5    19    20   ar
     6    20    17    1
     7    17     6    1
     8     6     7    1
     9     6     8   am
    10     8     9    2
    11     8    10   am
    12    10    11    1
    13    11    12    1
    14    12    13    2
    15    12    14    2
    16    12    15    1
    17    15    16    1
    18    16     2    1
    19     2     3    2
    20     2     4   am
    21     4     1    1
    22     1    26    1
    23    26    27    1
    24    28    27    1
    25    28    40    1
    26    40    41    1
    27    41    42   ar
    28    42    43   ar
    29    43    44   ar
    30    44    45   ar
    31    45    46   ar
    32    28    29    1
    33    29    30   am
    34    30    31    2
    35    30    33    1
    36    33    34    1
    37    34    35    1
    38    35    36   ar
    39    36    37   ar
    40    37    38   ar
    41    38    39   ar
    42     1    47    1
    43    47    48    1
    44    48    49   ar
    45    49    50   ar
    46    50    51   ar
    47    51    52   ar
    48    52    53   ar
    49    20    21   ar
    50    21    22   ar
    51    22    18   ar
    52    16    10    1
    53    46    41   ar
    54    39    35   ar
    55    53    48   ar
    56     4     5    1
    57    29    32    1
@<TRIPOS>MOLECULE
*****
 53 57 0 0 0
SMALL
GASTEIGER

@<TRIPOS>ATOM
      1 C          63.8945   87.2463   14.0039 C.3     1  UNL1        0.0760
      2 C          62.5314   86.2421   12.0332 C.2     1  UNL1        0.2424
      3 O          61.6333   85.5434   13.0105 O.2     1  UNL1       -0.2733
      4 N          63.6620   87.0936   12.5299 N.am    1  UNL1       -0.3042
      5 H          64.2515   87.5522   11.8885 H       1  UNL1        0.1494
      6 N          60.0535   89.1067    9.1539 N.am    1  UNL1       -0.2565
      7 C          59.3561   90.3551    9.6062 C.3     1  UNL1        0.1168
      8 C          60.8103   88.2701   10.1425 C.2     1  UNL1        0.3091
      9 O          60.8695   88.6821   11.5837 O.2     1  UNL1       -0.2523
     10 N          61.5078   87.0216    9.6902 N.am    1  UNL1       -0.2350
     11 C          61.5367   86.4860    8.2893 C.3     1  UNL1        0.2487
     12 S          62.3456   85.2228    8.2926 S.O2    1  UNL1        0.0114
     13 O          62.0299   85.2030    6.8265 O.2     1  UNL1       -0.1713
     14 O          63.0886   83.9555    7.9894 O.2     1  UNL1       -0.1713
     15 C          62.8167   84.9777    9.6955 C.3     1  UNL1        0.1819
     16 C          62.2989   86.0894   10.5593 C.3     1  UNL1        0.1781
     17 C          59.9943   88.6946    7.7127 C.3     1  UNL1        0.1413
     18 C          59.9617   91.2941    4.8306 C.ar    1  UNL1        0.0875
     19 N          60.6935   90.3331    5.7199 N.ar    1  UNL1       -0.2453
     20 C          59.6959   89.7135    6.6530 C.ar    1  UNL1        0.0858
     21 C          58.3476   90.2914    6.3405 C.ar    1  UNL1        0.0530
     22 S          58.5117   91.2684    5.2141 S.2     1  UNL1       -0.0705
     23 C          61.9989   91.9108    3.3409 C.3     1  UNL1        0.0069
     24 C          60.5725   92.1335    3.7479 C.3     1  UNL1        0.0465
     25 C          59.7569   93.1956    3.0721 C.3     1  UNL1        0.0069
     26 C          63.5716   88.5438   14.6837 C.3     1  UNL1        0.0216
     27 C          63.3092   89.7738   13.8661 C.3     1  UNL1        0.0217
     28 C          64.2243   90.9572   13.9767 C.3     1  UNL1        0.0792
     29 N          64.3962   91.8839   12.8098 N.am    1  UNL1       -0.2720
     30 C          64.0565   91.4174   11.4252 C.2     1  UNL1        0.4019
     31 O          63.5448   90.0243   11.2076 O.2     1  UNL1       -0.2264
     32 H          64.7321   92.7982   12.9526 H       1  UNL1        0.1527
     33 O          64.2284   92.3441   10.2583 O.3     1  UNL1       -0.4291
     34 C          65.1025   93.5564   10.3857 C.3     1  UNL1        0.2447
     35 C          66.5560   93.4744   10.0245 C.ar    1  UNL1        0.0714
     36 C          67.3967   94.5964    9.4912 C.ar    1  UNL1        0.1053
     37 N          68.7843   94.0714    9.2702 N.ar    1  UNL1       -0.2350
     38 C          68.8013   92.6249    9.6669 C.ar    1  UNL1        0.1343
     39 S          67.4241   92.2560   10.1330 S.2     1  UNL1       -0.0652
     40 C          64.9674   91.2139   15.2541 C.3     1  UNL1        0.0460
     41 C          66.3436   91.8093   15.2146 C.ar    1  UNL1       -0.0205
     42 C          66.7674   92.7893   16.2682 C.ar    1  UNL1       -0.0042
     43 C          68.1436   93.3846   16.2286 C.ar    1  UNL1       -0.0003
     44 C          69.0960   93.0000   15.1355 C.ar    1  UNL1       -0.0000
     45 C          68.6722   92.0201   14.0819 C.ar    1  UNL1       -0.0003
     46 C          67.2961   91.4247   14.1215 C.ar    1  UNL1       -0.0042
     47 C          64.4500   86.1014   14.7982 C.3     1  UNL1        0.0459
     48 C          64.0410   84.6952   14.4736 C.ar    1  UNL1       -0.0205
     49 C          62.9360   84.0382   15.2464 C.ar    1  UNL1       -0.0042
     50 C          62.5270   82.6320   14.9218 C.ar    1  UNL1       -0.0003
     51 C          63.2230   81.8828   13.8244 C.ar    1  UNL1       -0.0000
     52 C          64.3280   82.5398   13.0516 C.ar    1  UNL1       -0.0003
     53 C          64.7370   83.9460   13.3761 C.ar    1  UNL1       -0.0042
@<TRIPOS>BOND
     1    23    24    1
     2    24    25    1
     3    24    18    1
     4    18    19   ar
     5    19    20   ar
     6    20    17    1
     7    17     6    1
     8     6     7    1
     9     6     8   am
    10     8     9    2
    11     8    10   am
    12    10    11    1
    13    11    12    1
    14    12    13    2
    15    12    14    2
    16    12    15    1
    17    15    16    1
    18    16     2    1
    19     2     3    2
    20     2     4   am
    21     4     1    1
    22     1    26    1
    23    26    27    1
    24    28    27    1
    25    28    40    1
    26    40    41    1
    27    41    42   ar
    28    42    43   ar
    29    43    44   ar
    30    44    45   ar
    31    45    46   ar
    32    28    29    1
    33    29    30   am
    34    30    31    2
    35    30    33    1
    36    33    34    1
    37    34    35    1
    38    35    36   ar
    39    36    37   ar
    40    37    38   ar
    41    38    39   ar
    42     1    47    1
    43    47    48    1
    44    48    49   ar
    45    49    50   ar
    46    50    51   ar
    47    51    52   ar
    48    52    53   ar
    49    20    21   ar
    50    21    22   ar
    51    22    18   ar
    52    16    10    1
    53    46    41   ar
    54    39    35   ar
    55    53    48   ar
    56     4     5    1
    57    29    32    1
@<TRIPOS>MOLECULE
*****
 53 57 0 0 0
SMALL
GASTEIGER

@<TRIPOS>ATOM
      1 C          62.3268   86.8415   11.4580 C.3     1  UNL1        0.0760
      2 C          62.3592   89.1198   12.7063 C.2     1  UNL1        0.2424
      3 O          60.9309   89.3553   12.3137 O.2     1  UNL1       -0.2733
      4 N          63.0572   87.8629   12.2784 N.am    1  UNL1       -0.3042
      5 H          63.9948   87.7083   12.5361 H       1  UNL1        0.1494
      6 N          65.0880   92.6988   11.1632 N.am    1  UNL1       -0.2565
      7 C          65.3584   92.9870    9.7163 C.3     1  UNL1        0.1168
      8 C          64.2116   91.5435   11.5469 C.2     1  UNL1        0.3091
      9 O          63.6055   90.6764   10.4834 O.2     1  UNL1       -0.2523
     10 N          63.9412   91.2553   12.9938 N.am    1  UNL1       -0.2350
     11 C          64.4747   92.0305   14.1620 C.3     1  UNL1        0.2487
     12 S          63.9530   91.3955   15.4168 S.O2    1  UNL1        0.0114
     13 O          64.7340   92.4776   16.1016 O.2     1  UNL1       -0.1713
     14 O          63.5946   90.9868   16.8148 O.2     1  UNL1       -0.1713
     15 C          63.0971   90.2279   15.0243 C.3     1  UNL1        0.1819
     16 C          63.0897   90.1412   13.5268 C.3     1  UNL1        0.1781
     17 C          65.6941   93.5659   12.2267 C.3     1  UNL1        0.1413
     18 C          68.5053   92.8126   14.7948 C.ar    1  UNL1        0.0875
     19 N          67.3188   93.6146   14.3487 N.ar    1  UNL1       -0.2453
     20 C          66.8543   93.0629   13.0335 C.ar    1  UNL1        0.0858
     21 C          67.7537   91.9199   12.6667 C.ar    1  UNL1        0.0530
     22 S          68.7741   91.7652   13.7552 S.2     1  UNL1       -0.0705
     23 C          69.5074   91.8756   17.0011 C.3     1  UNL1        0.0069
     24 C          69.2859   93.0213   16.0586 C.3     1  UNL1        0.0465
     25 C          69.8450   94.3756   16.3798 C.3     1  UNL1        0.0069
     26 C          62.3311   85.4010   11.8761 C.3     1  UNL1        0.0216
     27 C          63.6072   84.6135   11.8402 C.3     1  UNL1        0.0217
     28 C          64.2309   84.1374   13.1187 C.3     1  UNL1        0.0792
     29 N          64.2291   82.6756   13.4551 N.am    1  UNL1       -0.2720
     30 C          62.9789   82.0261   13.9702 C.2     1  UNL1        0.4019
     31 O          61.7307   82.8384   14.1490 O.2     1  UNL1       -0.2264
     32 H          65.0484   82.1424   13.3377 H       1  UNL1        0.1527
     33 O          62.9771   80.5643   14.3066 O.3     1  UNL1       -0.4291
     34 C          62.3541   79.5784   13.3634 C.3     1  UNL1        0.2447
     35 C          62.6109   79.6853   11.8894 C.ar    1  UNL1        0.0714
     36 C          62.9019   80.9483   11.1344 C.ar    1  UNL1        0.1053
     37 N          63.0927   80.5916    9.6900 N.ar    1  UNL1       -0.2350
     38 C          62.9195   79.1080    9.5522 C.ar    1  UNL1        0.1343
     39 S          62.6218   78.5479   10.9115 S.2     1  UNL1       -0.0652
     40 C          64.8565   85.1230   14.0606 C.3     1  UNL1        0.0460
     41 C          64.0531   85.6932   15.1918 C.ar    1  UNL1       -0.0205
     42 C          64.1916   87.1421   15.5543 C.ar    1  UNL1       -0.0042
     43 C          63.3883   87.7122   16.6855 C.ar    1  UNL1       -0.0003
     44 C          62.4465   86.8334   17.4541 C.ar    1  UNL1       -0.0000
     45 C          62.3081   85.3845   17.0916 C.ar    1  UNL1       -0.0003
     46 C          63.1114   84.8144   15.9605 C.ar    1  UNL1       -0.0042
     47 C          61.5919   87.2607   10.2192 C.3     1  UNL1        0.0459
     48 C          61.6153   86.3857    9.0011 C.ar    1  UNL1       -0.0205
     49 C          62.8948   85.7308    8.5725 C.ar    1  UNL1       -0.0042
     50 C          62.9182   84.8559    7.3544 C.ar    1  UNL1       -0.0003
     51 C          61.6620   84.6358    6.5648 C.ar    1  UNL1       -0.0000
     52 C          60.3823   85.2907    6.9934 C.ar    1  UNL1       -0.0003
     53 C          60.3590   86.1657    8.2115 C.ar    1  UNL1       -0.0042
@<TRIPOS>BOND
     1    23    24    1
     2    24    25    1
     3    24    18    1
     4    18    19   ar
     5    19    20   ar
     6    20    17    1
     7    17     6    1
     8     6     7    1
     9     6     8   am
    10     8     9    2
    11     8    10   am
    12    10    11    1
    13    11    12    1
    14    12    13    2
    15    12    14    2
    16    12    15    1
    17    15    16    1
    18    16     2    1
    19     2     3    2
    20     2     4   am
    21     4     1    1
    22     1    26    1
    23    26    27    1
    24    28    27    1
    25    28    40    1
    26    40    41    1
    27    41    42   ar
    28    42    43   ar
    29    43    44   ar
    30    44    45   ar
    31    45    46   ar
    32    28    29    1
    33    29    30   am
    34    30    31    2
    35    30    33    1
    36    33    34    1
    37    34    35    1
    38    35    36   ar
    39    36    37   ar
    40    37    38   ar
    41    38    39   ar
    42     1    47    1
    43    47    48    1
    44    48    49   ar
    45    49    50   ar
    46    50    51   ar
    47    51    52   ar
    48    52    53   ar
    49    20    21   ar
    50    21    22   ar
    51    22    18   ar
    52    16    10    1
    53    46    41   ar
    54    39    35   ar
    55    53    48   ar
    56     4     5    1
    57    29    32    1
@<TRIPOS>MOLECULE
*****
 53 57 0 0 0
SMALL
GASTEIGER

@<TRIPOS>ATOM
      1 C          63.0641   90.5232   12.3819 C.3     1  UNL1        0.0760
      2 C          63.7855   88.9857   14.3480 C.2     1  UNL1        0.2424
      3 O          65.1025   89.6997   14.4231 O.2     1  UNL1       -0.2733
      4 N          62.7663   89.3975   13.3274 N.am    1  UNL1       -0.3042
      5 H          61.9018   88.9288   13.2781 H       1  UNL1        0.1494
      6 N          63.5721   84.3331   13.3767 N.am    1  UNL1       -0.2565
      7 C          63.8034   83.7464   12.0158 C.3     1  UNL1        0.1168
      8 C          63.6625   85.8166   13.5792 C.2     1  UNL1        0.3091
      9 O          63.9843   86.7134   12.4206 O.2     1  UNL1       -0.2523
     10 N          63.4312   86.4032   14.9401 N.am    1  UNL1       -0.2350
     11 C          63.1027   85.6363   16.1867 C.3     1  UNL1        0.2487
     12 S          62.9562   86.6190   17.3105 S.O2    1  UNL1        0.0114
     13 O          62.6753   85.3968   18.1334 O.2     1  UNL1       -0.1713
     14 O          62.7510   87.3461   18.6063 O.2     1  UNL1       -0.1713
     15 C          63.1942   87.9933   16.7585 C.3     1  UNL1        0.1819
     16 C          63.4877   87.8600   15.2936 C.3     1  UNL1        0.1781
     17 C          63.2503   83.4362   14.5353 C.3     1  UNL1        0.1413
     18 C          60.6412   80.5824   14.1990 C.ar    1  UNL1        0.0875
     19 N          60.9985   81.9961   14.5507 N.ar    1  UNL1       -0.2453
     20 C          62.4687   82.1754   14.3132 C.ar    1  UNL1        0.0858
     21 C          63.0200   80.8725   13.8148 C.ar    1  UNL1        0.0530
     22 S          61.8906   79.8879   13.7441 S.2     1  UNL1       -0.0705
     23 C          58.0566   80.8245   14.0932 C.3     1  UNL1        0.0069
     24 C          59.2745   79.9705   14.2866 C.3     1  UNL1        0.0465
     25 C          59.1256   78.5047   14.5678 C.3     1  UNL1        0.0069
     26 C          64.1923   91.4680   12.6723 C.3     1  UNL1        0.0216
     27 C          64.8329   92.2370   11.5551 C.3     1  UNL1        0.0217
     28 C          66.3090   92.5033   11.5778 C.3     1  UNL1        0.0792
     29 N          66.8853   93.6052   10.7389 N.am    1  UNL1       -0.2720
     30 C          67.7340   93.2749    9.5470 C.2     1  UNL1        0.4019
     31 O          68.0064   91.8428    9.1939 O.2     1  UNL1       -0.2264
     32 H          66.7065   94.5452   10.9707 H       1  UNL1        0.1527
     33 O          68.3102   94.3769    8.7081 O.3     1  UNL1       -0.4291
     34 C          67.5265   95.6357    8.4823 C.3     1  UNL1        0.2447
     35 C          66.5600   96.1147    9.5246 C.ar    1  UNL1        0.0714
     36 C          66.8822   96.3986   10.9618 C.ar    1  UNL1        0.1053
     37 N          65.6229   96.8532   11.6382 N.ar    1  UNL1       -0.2350
     38 C          64.5223   96.8502   10.6190 C.ar    1  UNL1        0.1343
     39 S          65.1015   96.3938    9.3127 S.2     1  UNL1       -0.0652
     40 C          67.2087   91.6676   12.4392 C.3     1  UNL1        0.0460
     41 C          67.6181   92.1603   13.7956 C.ar    1  UNL1       -0.0205
     42 C          69.0649   92.4204   14.0939 C.ar    1  UNL1       -0.0042
     43 C          69.4742   92.9131   15.4502 C.ar    1  UNL1       -0.0003
     44 C          68.4367   93.1458   16.5082 C.ar    1  UNL1       -0.0000
     45 C          66.9899   92.8857   16.2100 C.ar    1  UNL1       -0.0003
     46 C          66.5806   92.3930   14.8536 C.ar    1  UNL1       -0.0042
     47 C          62.2336   90.7041   11.1459 C.3     1  UNL1        0.0459
     48 C          61.6781   89.5065   10.4336 C.ar    1  UNL1       -0.0205
     49 C          60.2098   89.4237   10.1386 C.ar    1  UNL1       -0.0042
     50 C          59.6543   88.2261    9.4263 C.ar    1  UNL1       -0.0003
     51 C          60.5671   87.1114    9.0092 C.ar    1  UNL1       -0.0000
     52 C          62.0355   87.1942    9.3043 C.ar    1  UNL1       -0.0003
     53 C          62.5910   88.3917   10.0165 C.ar    1  UNL1       -0.0042
@<TRIPOS>BOND
     1    23    24    1
     2    24    25    1
     3    24    18    1
     4    18    19   ar
     5    19    20   ar
     6    20    17    1
     7    17     6    1
     8     6     7    1
     9     6     8   am
    10     8     9    2
    11     8    10   am
    12    10    11    1
    13    11    12    1
    14    12    13    2
    15    12    14    2
    16    12    15    1
    17    15    16    1
    18    16     2    1
    19     2     3    2
    20     2     4   am
    21     4     1    1
    22     1    26    1
    23    26    27    1
    24    28    27    1
    25    28    40    1
    26    40    41    1
    27    41    42   ar
    28    42    43   ar
    29    43    44   ar
    30    44    45   ar
    31    45    46   ar
    32    28    29    1
    33    29    30   am
    34    30    31    2
    35    30    33    1
    36    33    34    1
    37    34    35    1
    38    35    36   ar
    39    36    37   ar
    40    37    38   ar
    41    38    39   ar
    42     1    47    1
    43    47    48    1
    44    48    49   ar
    45    49    50   ar
    46    50    51   ar
    47    51    52   ar
    48    52    53   ar
    49    20    21   ar
    50    21    22   ar
    51    22    18   ar
    52    16    10    1
    53    46    41   ar
    54    39    35   ar
    55    53    48   ar
    56     4     5    1
    57    29    32    1
@<TRIPOS>MOLECULE
*****
 53 57 0 0 0
SMALL
GASTEIGER

@<TRIPOS>ATOM
      1 C          63.1749   90.3389   12.0230 C.3     1  UNL1        0.0760
      2 C          63.7848   89.0235   14.1789 C.2     1  UNL1        0.2424
      3 O          64.9547   89.9348   14.4040 O.2     1  UNL1       -0.2733
      4 N          62.8949   89.2255   12.9884 N.am    1  UNL1       -0.3042
      5 H          62.1270   88.6274   12.8407 H       1  UNL1        0.1494
      6 N          63.5862   84.3560   13.2782 N.am    1  UNL1       -0.2565
      7 C          63.8045   83.7507   11.9233 C.3     1  UNL1        0.1168
      8 C          63.6706   85.8428   13.4580 C.2     1  UNL1        0.3091
      9 O          63.9734   86.7243   12.2826 O.2     1  UNL1       -0.2523
     10 N          63.4522   86.4481   14.8129 N.am    1  UNL1       -0.2350
     11 C          63.1430   85.6977   16.0744 C.3     1  UNL1        0.2487
     12 S          63.0045   86.6959   17.1854 S.O2    1  UNL1        0.0114
     13 O          62.7404   85.4843   18.0293 O.2     1  UNL1       -0.1713
     14 O          62.8107   87.4408   18.4728 O.2     1  UNL1       -0.1713
     15 C          63.2280   88.0632   16.6106 C.3     1  UNL1        0.1819
     16 C          63.5047   87.9101   15.1443 C.3     1  UNL1        0.1781
     17 C          63.2834   83.4745   14.4536 C.3     1  UNL1        0.1413
     18 C          60.6807   80.6080   14.1814 C.ar    1  UNL1        0.0875
     19 N          61.0349   82.0299   14.5018 N.ar    1  UNL1       -0.2453
     20 C          62.5046   82.2073   14.2597 C.ar    1  UNL1        0.0858
     21 C          63.0587   80.8950   13.7898 C.ar    1  UNL1        0.0530
     22 S          61.9315   79.9065   13.7413 S.2     1  UNL1       -0.0705
     23 C          58.0953   80.8638   14.2022 C.3     1  UNL1        0.0069
     24 C          59.3154   79.9951   14.2832 C.3     1  UNL1        0.0465
     25 C          59.1702   78.5133   14.4660 C.3     1  UNL1        0.0069
     26 C          63.9132   91.5614   12.4818 C.3     1  UNL1        0.0216
     27 C          64.7530   92.3384   11.5117 C.3     1  UNL1        0.0217
     28 C          65.9009   93.1663   12.0089 C.3     1  UNL1        0.0792
     29 N          67.0623   92.5055   12.6905 N.am    1  UNL1       -0.2720
     30 C          68.2256   92.0132   11.8815 C.2     1  UNL1        0.4019
     31 O          68.2275   92.1815   10.3911 O.2     1  UNL1       -0.2264
     32 H          67.0610   92.3950   13.6688 H       1  UNL1        0.1527
     33 O          69.3870   91.3524   12.5632 O.3     1  UNL1       -0.4291
     34 C          69.8789   91.8738   13.8808 C.3     1  UNL1        0.2447
     35 C          68.9058   92.4285   14.8784 C.ar    1  UNL1        0.0714
     36 C          68.9159   93.8191   15.4407 C.ar    1  UNL1        0.1053
     37 N          67.7681   93.9401   16.3987 N.ar    1  UNL1       -0.2350
     38 C          67.0486   92.6243   16.4286 C.ar    1  UNL1        0.1343
     39 S          67.7517   91.6901   15.4890 S.2     1  UNL1       -0.0652
     40 C          65.8873   94.6548   11.8243 C.3     1  UNL1        0.0460
     41 C          66.0540   95.2422   10.4542 C.ar    1  UNL1       -0.0205
     42 C          67.1939   94.8035    9.5836 C.ar    1  UNL1       -0.0042
     43 C          67.3605   95.3910    8.2136 C.ar    1  UNL1       -0.0003
     44 C          66.3872   96.4172    7.7141 C.ar    1  UNL1       -0.0000
     45 C          65.2472   96.8559    8.5847 C.ar    1  UNL1       -0.0003
     46 C          65.0806   96.2685    9.9548 C.ar    1  UNL1       -0.0042
     47 C          62.7167   90.2297   10.5989 C.3     1  UNL1        0.0459
     48 C          61.9271   89.0343   10.1546 C.ar    1  UNL1       -0.0205
     49 C          60.4320   89.1142   10.0646 C.ar    1  UNL1       -0.0042
     50 C          59.6423   87.9188    9.6203 C.ar    1  UNL1       -0.0003
     51 C          60.3478   86.6433    9.2662 C.ar    1  UNL1       -0.0000
     52 C          61.8430   86.5633    9.3562 C.ar    1  UNL1       -0.0003
     53 C          62.6327   87.7588    9.8004 C.ar    1  UNL1       -0.0042
@<TRIPOS>BOND
     1    23    24    1
     2    24    25    1
     3    24    18    1
     4    18    19   ar
     5    19    20   ar
     6    20    17    1
     7    17     6    1
     8     6     7    1
     9     6     8   am
    10     8     9    2
    11     8    10   am
    12    10    11    1
    13    11    12    1
    14    12    13    2
    15    12    14    2
    16    12    15    1
    17    15    16    1
    18    16     2    1
    19     2     3    2
    20     2     4   am
    21     4     1    1
    22     1    26    1
    23    26    27    1
    24    28    27    1
    25    28    40    1
    26    40    41    1
    27    41    42   ar
    28    42    43   ar
    29    43    44   ar
    30    44    45   ar
    31    45    46   ar
    32    28    29    1
    33    29    30   am
    34    30    31    2
    35    30    33    1
    36    33    34    1
    37    34    35    1
    38    35    36   ar
    39    36    37   ar
    40    37    38   ar
    41    38    39   ar
    42     1    47    1
    43    47    48    1
    44    48    49   ar
    45    49    50   ar
    46    50    51   ar
    47    51    52   ar
    48    52    53   ar
    49    20    21   ar
    50    21    22   ar
    51    22    18   ar
    52    16    10    1
    53    46    41   ar
    54    39    35   ar
    55    53    48   ar
    56     4     5    1
    57    29    32    1
@<TRIPOS>MOLECULE
*****
 53 57 0 0 0
SMALL
GASTEIGER

@<TRIPOS>ATOM
      1 C          62.2726   87.0443   11.0851 C.3     1  UNL1        0.0760
      2 C          62.2741   89.1768   12.5693 C.2     1  UNL1        0.2424
      3 O          60.8085   89.3598   12.3078 O.2     1  UNL1       -0.2733
      4 N          63.0062   88.0190   11.9580 N.am    1  UNL1       -0.3042
      5 H          63.9682   87.8988   12.1296 H       1  UNL1        0.1494
      6 N          65.0559   92.7915   11.2160 N.am    1  UNL1       -0.2565
      7 C          65.3432   93.1423    9.7863 C.3     1  UNL1        0.1168
      8 C          64.1635   91.6298   11.5386 C.2     1  UNL1        0.3091
      9 O          63.5582   90.8189   10.4311 O.2     1  UNL1       -0.2523
     10 N          63.8762   91.2790   12.9683 N.am    1  UNL1       -0.2350
     11 C          64.4068   91.9941   14.1754 C.3     1  UNL1        0.2487
     12 S          63.8663   91.3086   15.3952 S.O2    1  UNL1        0.0114
     13 O          64.6524   92.3495   16.1357 O.2     1  UNL1       -0.1713
     14 O          63.4902   90.8406   16.7698 O.2     1  UNL1       -0.1713
     15 C          63.0017   90.1697   14.9420 C.3     1  UNL1        0.1819
     16 C          63.0077   90.1514   13.4421 C.3     1  UNL1        0.1781
     17 C          65.6612   93.6024   12.3234 C.3     1  UNL1        0.1413
     18 C          68.5287   92.7611   14.8002 C.ar    1  UNL1        0.0875
     19 N          67.3423   93.5878   14.4015 N.ar    1  UNL1       -0.2453
     20 C          66.8352   93.0680   13.0890 C.ar    1  UNL1        0.0858
     21 C          67.7081   91.9201   12.6766 C.ar    1  UNL1        0.0530
     22 S          68.7548   91.7303   13.7341 S.2     1  UNL1       -0.0705
     23 C          69.9938   94.2550   16.3402 C.3     1  UNL1        0.0069
     24 C          69.3456   92.9346   16.0462 C.3     1  UNL1        0.0465
     25 C          69.5144   91.7878   16.9982 C.3     1  UNL1        0.0069
     26 C          62.0094   85.6508   11.5736 C.3     1  UNL1        0.0216
     27 C          63.0762   84.6024   11.4608 C.3     1  UNL1        0.0217
     28 C          63.5427   83.8722   12.6852 C.3     1  UNL1        0.0792
     29 N          63.0820   82.4680   12.9422 N.am    1  UNL1       -0.2720
     30 C          63.1815   81.4359   11.8582 C.2     1  UNL1        0.4019
     31 O          63.7416   81.8079   10.5174 O.2     1  UNL1       -0.2264
     32 H          62.7144   82.2238   13.8222 H       1  UNL1        0.1527
     33 O          62.7208   80.0317   12.1151 O.3     1  UNL1       -0.4291
     34 C          62.2988   79.6214   13.4948 C.3     1  UNL1        0.2447
     35 C          60.8669   79.7697   13.9163 C.ar    1  UNL1        0.0714
     36 C          60.1303   81.0639   14.0966 C.ar    1  UNL1        0.1053
     37 N          58.7283   80.7439   14.5232 N.ar    1  UNL1       -0.2350
     38 C          58.5984   79.2518   14.6066 C.ar    1  UNL1        0.1343
     39 S          59.9201   78.6498   14.2315 S.2     1  UNL1       -0.0652
     40 C          64.4699   84.5462   13.6527 C.3     1  UNL1        0.0460
     41 C          63.9130   85.3033   14.8218 C.ar    1  UNL1       -0.0205
     42 C          64.3544   86.7132   15.0812 C.ar    1  UNL1       -0.0042
     43 C          63.7975   87.4703   16.2502 C.ar    1  UNL1       -0.0003
     44 C          62.7993   86.8175   17.1598 C.ar    1  UNL1       -0.0000
     45 C          62.3580   85.4076   16.9004 C.ar    1  UNL1       -0.0003
     46 C          62.9148   84.6505   15.7314 C.ar    1  UNL1       -0.0042
     47 C          61.8023   87.4632    9.7237 C.3     1  UNL1        0.0459
     48 C          61.7168   86.4548    8.6166 C.ar    1  UNL1       -0.0205
     49 C          60.4068   86.2034    7.9305 C.ar    1  UNL1       -0.0042
     50 C          60.3213   85.1950    6.8234 C.ar    1  UNL1       -0.0003
     51 C          61.5458   84.4378    6.4024 C.ar    1  UNL1       -0.0000
     52 C          62.8559   84.6891    7.0884 C.ar    1  UNL1       -0.0003
     53 C          62.9414   85.6976    8.1956 C.ar    1  UNL1       -0.0042
@<TRIPOS>BOND
     1    23    24    1
     2    24    25    1
     3    24    18    1
     4    18    19   ar
     5    19    20   ar
     6    20    17    1
     7    17     6    1
     8     6     7    1
     9     6     8   am
    10     8     9    2
    11     8    10   am
    12    10    11    1
    13    11    12    1
    14    12    13    2
    15    12    14    2
    16    12    15    1
    17    15    16    1
    18    16     2    1
    19     2     3    2
    20     2     4   am
    21     4     1    1
    22     1    26    1
    23    26    27    1
    24    28    27    1
    25    28    40    1
    26    40    41    1
    27    41    42   ar
    28    42    43   ar
    29    43    44   ar
    30    44    45   ar
    31    45    46   ar
    32    28    29    1
    33    29    30   am
    34    30    31    2
    35    30    33    1
    36    33    34    1
    37    34    35    1
    38    35    36   ar
    39    36    37   ar
    40    37    38   ar
    41    38    39   ar
    42     1    47    1
    43    47    48    1
    44    48    49   ar
    45    49    50   ar
    46    50    51   ar
    47    51    52   ar
    48    52    53   ar
    49    20    21   ar
    50    21    22   ar
    51    22    18   ar
    52    16    10    1
    53    46    41   ar
    54    39    35   ar
    55    53    48   ar
    56     4     5    1
    57    29    32    1
@<TRIPOS>MOLECULE
*****
 53 57 0 0 0
SMALL
GASTEIGER

@<TRIPOS>ATOM
      1 C          61.6600   90.2788   11.1708 C.3     1  UNL1        0.0760
      2 C          62.7483   88.0012   11.7861 C.2     1  UNL1        0.2424
      3 O          62.9754   87.7166   10.3310 O.2     1  UNL1       -0.2733
      4 N          62.0906   89.2823   12.2060 N.am    1  UNL1       -0.3042
      5 H          61.9415   89.4691   13.1611 H       1  UNL1        0.1494
      6 N          63.2308   83.2942   11.2884 N.am    1  UNL1       -0.2565
      7 C          62.9625   82.5513   10.0133 C.3     1  UNL1        0.1168
      8 C          63.0485   84.7821   11.3422 C.2     1  UNL1        0.3091
      9 O          62.5977   85.5271   10.1206 O.2     1  UNL1       -0.2523
     10 N          63.3168   85.5251   12.6172 N.am    1  UNL1       -0.2350
     11 C          63.7703   84.9189   13.9122 C.3     1  UNL1        0.2487
     12 S          63.9125   86.0239   14.9166 S.O2    1  UNL1        0.0114
     13 O          64.3258   84.9174   15.8412 O.2     1  UNL1       -0.1713
     14 O          64.1412   86.8976   16.1142 O.2     1  UNL1       -0.1713
     15 C          63.5470   87.3130   14.2424 C.3     1  UNL1        0.1819
     16 C          63.1788   87.0048   12.8213 C.3     1  UNL1        0.1781
     17 C          63.6816   82.5493   12.5099 C.3     1  UNL1        0.1413
     18 C          60.8264   80.3230   13.9087 C.ar    1  UNL1        0.0875
     19 N          61.2991   81.5735   13.2284 N.ar    1  UNL1       -0.2453
     20 C          62.7939   81.5071   13.1229 C.ar    1  UNL1        0.0858
     21 C          63.2451   80.2156   13.7380 C.ar    1  UNL1        0.0530
     22 S          62.0292   79.4837   14.2237 S.2     1  UNL1       -0.0705
     23 C          58.3347   81.0241   14.1317 C.3     1  UNL1        0.0069
     24 C          59.4013   79.9731   14.2195 C.3     1  UNL1        0.0465
     25 C          59.0427   78.5722   14.6182 C.3     1  UNL1        0.0069
     26 C          62.6106   91.3463   10.7163 C.3     1  UNL1        0.0216
     27 C          64.0813   91.0602   10.6451 C.3     1  UNL1        0.0217
     28 C          65.0585   91.9863   11.3067 C.3     1  UNL1        0.0792
     29 N          64.8024   92.4748   12.7016 N.am    1  UNL1       -0.2720
     30 C          64.7007   91.4947   13.8326 C.2     1  UNL1        0.4019
     31 O          64.8550   90.0262   13.5687 O.2     1  UNL1       -0.2264
     32 H          64.7011   93.4386   12.8749 H       1  UNL1        0.1527
     33 O          64.4446   91.9832   15.2276 O.3     1  UNL1       -0.4291
     34 C          65.5957   92.2572   16.1494 C.3     1  UNL1        0.2447
     35 C          66.9714   92.4672   15.5896 C.ar    1  UNL1        0.0714
     36 C          67.6003   91.6810   14.4777 C.ar    1  UNL1        0.1053
     37 N          68.9773   92.2282   14.2442 N.ar    1  UNL1       -0.2350
     38 C          69.1994   93.3526   15.2119 C.ar    1  UNL1        0.1343
     39 S          67.9597   93.5003   16.0434 S.2     1  UNL1       -0.0652
     40 C          66.2916   92.4239   10.5733 C.3     1  UNL1        0.0460
     41 C          66.4693   93.8654   10.1982 C.ar    1  UNL1       -0.0205
     42 C          67.3942   94.2404    9.0784 C.ar    1  UNL1       -0.0042
     43 C          67.5718   95.6818    8.7032 C.ar    1  UNL1       -0.0003
     44 C          66.8246   96.7481    9.4479 C.ar    1  UNL1       -0.0000
     45 C          65.8998   96.3731   10.5677 C.ar    1  UNL1       -0.0003
     46 C          65.7221   94.9317   10.9428 C.ar    1  UNL1       -0.0042
     47 C          60.2788   90.2076   10.5900 C.3     1  UNL1        0.0459
     48 C          59.9670   89.2068    9.5171 C.ar    1  UNL1       -0.0205
     49 C          59.8489   87.7514    9.8604 C.ar    1  UNL1       -0.0042
     50 C          59.5371   86.7506    8.7875 C.ar    1  UNL1       -0.0003
     51 C          59.3435   87.2051    7.3712 C.ar    1  UNL1       -0.0000
     52 C          59.4616   88.6606    7.0278 C.ar    1  UNL1       -0.0003
     53 C          59.7733   89.6614    8.1008 C.ar    1  UNL1       -0.0042
@<TRIPOS>BOND
     1    23    24    1
     2    24    25    1
     3    24    18    1
     4    18    19   ar
     5    19    20   ar
     6    20    17    1
     7    17     6    1
     8     6     7    1
     9     6     8   am
    10     8     9    2
    11     8    10   am
    12    10    11    1
    13    11    12    1
    14    12    13    2
    15    12    14    2
    16    12    15    1
    17    15    16    1
    18    16     2    1
    19     2     3    2
    20     2     4   am
    21     4     1    1
    22     1    26    1
    23    26    27    1
    24    28    27    1
    25    28    40    1
    26    40    41    1
    27    41    42   ar
    28    42    43   ar
    29    43    44   ar
    30    44    45   ar
    31    45    46   ar
    32    28    29    1
    33    29    30   am
    34    30    31    2
    35    30    33    1
    36    33    34    1
    37    34    35    1
    38    35    36   ar
    39    36    37   ar
    40    37    38   ar
    41    38    39   ar
    42     1    47    1
    43    47    48    1
    44    48    49   ar
    45    49    50   ar
    46    50    51   ar
    47    51    52   ar
    48    52    53   ar
    49    20    21   ar
    50    21    22   ar
    51    22    18   ar
    52    16    10    1
    53    46    41   ar
    54    39    35   ar
    55    53    48   ar
    56     4     5    1
    57    29    32    1
@<TRIPOS>MOLECULE
*****
 53 57 0 0 0
SMALL
GASTEIGER

@<TRIPOS>ATOM
      1 C          62.2413   88.8895   11.1471 C.3     1  UNL1        0.0760
      2 C          62.7724   86.4440   10.4488 C.2     1  UNL1        0.2424
      3 O          62.3024   86.7398    9.0555 O.2     1  UNL1       -0.2733
      4 N          62.7419   87.5189   11.4947 N.am    1  UNL1       -0.3042
      5 H          63.0504   87.3248   12.4092 H       1  UNL1        0.1494
      6 N          62.8439   84.3567   14.7237 N.am    1  UNL1       -0.2565
      7 C          62.3460   85.0015   15.9830 C.3     1  UNL1        0.1168
      8 C          62.7772   85.1008   13.4230 C.2     1  UNL1        0.3091
      9 O          62.2125   86.4899   13.3818 O.2     1  UNL1       -0.2523
     10 N          63.2752   84.4560   12.1636 N.am    1  UNL1       -0.2350
     11 C          63.8628   83.0805   12.0500 C.3     1  UNL1        0.2487
     12 S          64.2238   82.8479   10.6128 S.O2    1  UNL1        0.0114
     13 O          64.6838   81.5092   11.1087 O.2     1  UNL1       -0.1713
     14 O          64.6809   82.3354    9.2793 O.2     1  UNL1       -0.1713
     15 C          63.8592   84.0795    9.8381 C.3     1  UNL1        0.1819
     16 C          63.2730   85.0734   10.7964 C.3     1  UNL1        0.1781
     17 C          63.4086   82.9676   14.7649 C.3     1  UNL1        0.1413
     18 C          60.5795   80.3641   14.2332 C.ar    1  UNL1        0.0875
     19 N          61.0466   81.7196   14.6740 N.ar    1  UNL1       -0.2453
     20 C          62.5295   81.7912   14.4595 C.ar    1  UNL1        0.0858
     21 C          62.9788   80.4801   13.8862 C.ar    1  UNL1        0.0530
     22 S          61.7736   79.5979   13.7463 S.2     1  UNL1       -0.0705
     23 C          58.8898   78.4230   14.5899 C.3     1  UNL1        0.0069
     24 C          59.1663   79.8627   14.2724 C.3     1  UNL1        0.0465
     25 C          58.0296   80.8010   13.9940 C.3     1  UNL1        0.0069
     26 C          63.2070   90.0298   11.0160 C.3     1  UNL1        0.0216
     27 C          63.2718   91.0839   12.0812 C.3     1  UNL1        0.0217
     28 C          64.6021   91.5626   12.5827 C.3     1  UNL1        0.0792
     29 N          65.1867   92.8396   12.0562 N.am    1  UNL1       -0.2720
     30 C          66.0219   93.7071   12.9508 C.2     1  UNL1        0.4019
     31 O          66.2723   93.2974   14.3718 O.2     1  UNL1       -0.2264
     32 H          65.0223   93.1085   11.1235 H       1  UNL1        0.1527
     33 O          66.6065   94.9841   12.4242 O.3     1  UNL1       -0.4291
     34 C          65.8508   95.7941   11.4130 C.3     1  UNL1        0.2447
     35 C          66.2554   95.7578    9.9690 C.ar    1  UNL1        0.0714
     36 C          67.1114   94.7113    9.3193 C.ar    1  UNL1        0.1053
     37 N          67.2601   95.0682    7.8700 N.ar    1  UNL1       -0.2350
     38 C          66.4960   96.3354    7.6240 C.ar    1  UNL1        0.1343
     39 S          65.8751   96.7615    8.9213 S.2     1  UNL1       -0.0652
     40 C          65.3475   90.7642   13.6107 C.3     1  UNL1        0.0460
     41 C          64.5964   90.0502   14.6953 C.ar    1  UNL1       -0.0205
     42 C          63.9091   90.8349   15.7731 C.ar    1  UNL1       -0.0042
     43 C          63.1580   90.1209   16.8576 C.ar    1  UNL1       -0.0003
     44 C          63.0944   88.6223   16.8642 C.ar    1  UNL1       -0.0000
     45 C          63.7818   87.8376   15.7864 C.ar    1  UNL1       -0.0003
     46 C          64.5328   88.5516   14.7019 C.ar    1  UNL1       -0.0042
     47 C          60.7750   89.1199   10.9305 C.3     1  UNL1        0.0459
     48 C          60.1360   88.7176    9.6344 C.ar    1  UNL1       -0.0205
     49 C          60.1618   89.6541    8.4630 C.ar    1  UNL1       -0.0042
     50 C          59.5228   89.2518    7.1669 C.ar    1  UNL1       -0.0003
     51 C          58.8580   87.9130    7.0422 C.ar    1  UNL1       -0.0000
     52 C          58.8322   86.9764    8.2137 C.ar    1  UNL1       -0.0003
     53 C          59.4712   87.3787    9.5097 C.ar    1  UNL1       -0.0042
@<TRIPOS>BOND
     1    23    24    1
     2    24    25    1
     3    24    18    1
     4    18    19   ar
     5    19    20   ar
     6    20    17    1
     7    17     6    1
     8     6     7    1
     9     6     8   am
    10     8     9    2
    11     8    10   am
    12    10    11    1
    13    11    12    1
    14    12    13    2
    15    12    14    2
    16    12    15    1
    17    15    16    1
    18    16     2    1
    19     2     3    2
    20     2     4   am
    21     4     1    1
    22     1    26    1
    23    26    27    1
    24    28    27    1
    25    28    40    1
    26    40    41    1
    27    41    42   ar
    28    42    43   ar
    29    43    44   ar
    30    44    45   ar
    31    45    46   ar
    32    28    29    1
    33    29    30   am
    34    30    31    2
    35    30    33    1
    36    33    34    1
    37    34    35    1
    38    35    36   ar
    39    36    37   ar
    40    37    38   ar
    41    38    39   ar
    42     1    47    1
    43    47    48    1
    44    48    49   ar
    45    49    50   ar
    46    50    51   ar
    47    51    52   ar
    48    52    53   ar
    49    20    21   ar
    50    21    22   ar
    51    22    18   ar
    52    16    10    1
    53    46    41   ar
    54    39    35   ar
    55    53    48   ar
    56     4     5    1
    57    29    32    1
@<TRIPOS>MOLECULE
*****
 53 57 0 0 0
SMALL
GASTEIGER

@<TRIPOS>ATOM
      1 C          62.0376   90.2724   11.1498 C.3     1  UNL1        0.0760
      2 C          62.8845   87.9124   11.8306 C.2     1  UNL1        0.2424
      3 O          62.9962   87.5350   10.3832 O.2     1  UNL1       -0.2733
      4 N          62.4052   89.2812   12.2139 N.am    1  UNL1       -0.3042
      5 H          62.3318   89.5289   13.1639 H       1  UNL1        0.1494
      6 N          63.3515   83.1977   11.3960 N.am    1  UNL1       -0.2565
      7 C          63.1434   82.4463   10.1147 C.3     1  UNL1        0.1168
      8 C          63.1795   84.6874   11.4284 C.2     1  UNL1        0.3091
      9 O          62.7993   85.4258   10.1793 O.2     1  UNL1       -0.2523
     10 N          63.3876   85.4388   12.7098 N.am    1  UNL1       -0.2350
     11 C          63.7679   84.8398   14.0314 C.3     1  UNL1        0.2487
     12 S          63.8674   85.9519   15.0331 S.O2    1  UNL1        0.0114
     13 O          64.2225   84.8499   15.9866 O.2     1  UNL1       -0.1713
     14 O          64.0410   86.8337   16.2340 O.2     1  UNL1       -0.1713
     15 C          63.5485   87.2383   14.3305 C.3     1  UNL1        0.1819
     16 C          63.2520   86.9212   12.8947 C.3     1  UNL1        0.1781
     17 C          63.7317   82.4593   12.6452 C.3     1  UNL1        0.1413
     18 C          60.8124   80.2476   13.9302 C.ar    1  UNL1        0.0875
     19 N          61.3208   81.5139   13.3072 N.ar    1  UNL1       -0.2453
     20 C          62.8141   81.4144   13.2075 C.ar    1  UNL1        0.0858
     21 C          63.2287   80.0867   13.7688 C.ar    1  UNL1        0.0530
     22 S          61.9917   79.3655   14.2155 S.2     1  UNL1       -0.0705
     23 C          58.3326   80.9945   14.1368 C.3     1  UNL1        0.0069
     24 C          59.3769   79.9208   14.2174 C.3     1  UNL1        0.0465
     25 C          58.9857   78.5202   14.5853 C.3     1  UNL1        0.0069
     26 C          63.0724   91.2179   10.6159 C.3     1  UNL1        0.0216
     27 C          63.9020   92.0341   11.5622 C.3     1  UNL1        0.0217
     28 C          65.3571   92.2626   11.2785 C.3     1  UNL1        0.0792
     29 N          66.3694   92.0991   12.3733 N.am    1  UNL1       -0.2720
     30 C          66.7168   93.2631   13.2534 C.2     1  UNL1        0.4019
     31 O          66.0520   94.5904   13.0387 O.2     1  UNL1       -0.2264
     32 H          66.8058   91.2279   12.5142 H       1  UNL1        0.1527
     33 O          67.7291   93.0997   14.3482 O.3     1  UNL1       -0.4291
     34 C          67.3251   92.4917   15.6586 C.3     1  UNL1        0.2447
     35 C          65.9219   91.9997   15.8562 C.ar    1  UNL1        0.0714
     36 C          64.9166   92.5641   16.8157 C.ar    1  UNL1        0.1053
     37 N          63.6511   91.7700   16.6815 N.ar    1  UNL1       -0.2350
     38 C          63.8743   90.7148   15.6391 C.ar    1  UNL1        0.1343
     39 S          65.2778   90.8568   15.1290 S.2     1  UNL1       -0.0652
     40 C          65.7999   92.6544    9.9000 C.3     1  UNL1        0.0460
     41 C          66.2666   94.0546    9.6317 C.ar    1  UNL1       -0.0205
     42 C          65.5147   95.2186   10.2058 C.ar    1  UNL1       -0.0042
     43 C          65.9813   96.6187    9.9376 C.ar    1  UNL1       -0.0003
     44 C          67.1999   96.8547    9.0952 C.ar    1  UNL1       -0.0000
     45 C          67.9517   95.6907    8.5212 C.ar    1  UNL1       -0.0003
     46 C          67.4851   94.2906    8.7894 C.ar    1  UNL1       -0.0042
     47 C          60.6351   90.3181   10.6196 C.3     1  UNL1        0.0459
     48 C          60.1784   89.2992    9.6180 C.ar    1  UNL1       -0.0205
     49 C          59.9584   89.6984    8.1890 C.ar    1  UNL1       -0.0042
     50 C          59.5016   88.6794    7.1874 C.ar    1  UNL1       -0.0003
     51 C          59.2650   87.2612    7.6149 C.ar    1  UNL1       -0.0000
     52 C          59.4850   86.8620    9.0440 C.ar    1  UNL1       -0.0003
     53 C          59.9417   87.8809   10.0456 C.ar    1  UNL1       -0.0042
@<TRIPOS>BOND
     1    23    24    1
     2    24    25    1
     3    24    18    1
     4    18    19   ar
     5    19    20   ar
     6    20    17    1
     7    17     6    1
     8     6     7    1
     9     6     8   am
    10     8     9    2
    11     8    10   am
    12    10    11    1
    13    11    12    1
    14    12    13    2
    15    12    14    2
    16    12    15    1
    17    15    16    1
    18    16     2    1
    19     2     3    2
    20     2     4   am
    21     4     1    1
    22     1    26    1
    23    26    27    1
    24    28    27    1
    25    28    40    1
    26    40    41    1
    27    41    42   ar
    28    42    43   ar
    29    43    44   ar
    30    44    45   ar
    31    45    46   ar
    32    28    29    1
    33    29    30   am
    34    30    31    2
    35    30    33    1
    36    33    34    1
    37    34    35    1
    38    35    36   ar
    39    36    37   ar
    40    37    38   ar
    41    38    39   ar
    42     1    47    1
    43    47    48    1
    44    48    49   ar
    45    49    50   ar
    46    50    51   ar
    47    51    52   ar
    48    52    53   ar
    49    20    21   ar
    50    21    22   ar
    51    22    18   ar
    52    16    10    1
    53    46    41   ar
    54    39    35   ar
    55    53    48   ar
    56     4     5    1
    57    29    32    1
