@<TRIPOS>MOLECULE
*****
 43 46 0 0 0
SMALL
GASTEIGER

@<TRIPOS>ATOM
      1 C          61.0890   88.7390    9.5246 C.3     1  UNL1        0.0613
      2 C          61.5581   89.6627   10.6093 C.3     1  UNL1        0.0376
      3 C          62.3715   89.1276   11.7503 C.3     1  UNL1        0.0966
      4 N          62.7159   87.6688   11.8066 N.am    1  UNL1       -0.2618
      5 C          63.5293   87.1337   12.9477 C.2     1  UNL1        0.3076
      6 O          63.8737   85.6749   13.0039 O.2     1  UNL1       -0.2523
      7 N          63.9984   88.0574   14.0324 N.am    1  UNL1       -0.2602
      8 C          64.8118   87.5223   15.1734 C.3     1  UNL1        0.1167
      9 C          62.2468   86.7451   10.7219 C.3     1  UNL1        0.1004
     10 C          61.4334   87.2802    9.5809 C.3     1  UNL1        0.0404
     11 C          58.4049   91.9402    4.0658 C.3     1  UNL1        0.0948
     12 C          57.8352   90.8795    4.9604 C.2     1  UNL1        0.2262
     13 O          56.4521   90.3539    4.7140 O.2     1  UNL1       -0.2749
     14 N          58.6487   90.3444    6.1015 N.am    1  UNL1       -0.2767
     15 C          60.0318   90.8700    6.3479 C.3     1  UNL1        0.1107
     16 C          60.8452   90.3348    7.4889 C.3     1  UNL1        0.0939
     17 N          60.2756   89.2741    8.3835 N.3     1  UNL1       -0.2710
     18 C          58.8925   88.7486    8.1371 C.3     1  UNL1        0.0939
     19 C          58.0790   89.2837    6.9961 C.3     1  UNL1        0.1107
     20 C          62.5912   85.2862   10.7781 C.ar    1  UNL1       -0.0080
     21 C          62.2439   84.4800   11.9944 C.ar    1  UNL1       -0.0007
     22 C          62.5882   83.0211   12.0507 C.ar    1  UNL1        0.0293
     23 C          63.2799   82.3685   10.8907 C.ar    1  UNL1        0.1398
     24 F          63.6243   80.9097   10.9469 F       1  UNL1       -0.2042
     25 C          63.6273   83.1747    9.6744 C.ar    1  UNL1        0.0251
     26 C          63.2829   84.6336    9.6181 C.ar    1  UNL1       -0.0220
     27 C          63.6303   85.4399    8.4019 C.3     1  UNL1        0.0308
     28 C          63.6540   89.5163   13.9762 C.3     1  UNL1        0.0994
     29 C          62.2395   89.9622   14.2008 C.3     1  UNL1        0.0265
     30 C          64.7241   90.5292   13.6953 C.ar    1  UNL1       -0.0043
     31 C          65.7897   90.7972   14.7164 C.ar    1  UNL1        0.0012
     32 C          66.8598   91.8102   14.4355 C.ar    1  UNL1        0.0711
     33 C          66.8642   92.5551   13.1335 C.ar    1  UNL1        0.0077
     34 C          65.7987   92.2871   12.1125 C.ar    1  UNL1        0.0711
     35 C          64.7285   91.2741   12.3933 C.ar    1  UNL1        0.0012
     36 C          67.9254   92.0782   15.4566 C.3     1  UNL1        0.4186
     37 F          68.9910   92.3462   16.4778 F       1  UNL1       -0.1659
     38 F          66.8767   92.1805   16.5241 F       1  UNL1       -0.1659
     39 F          68.9741   91.9758   14.3890 F       1  UNL1       -0.1659
     40 C          65.8031   93.0320   10.8105 C.3     1  UNL1        0.4186
     41 F          65.8076   93.7769    9.5085 F       1  UNL1       -0.1659
     42 F          64.6991   92.1522   10.3034 F       1  UNL1       -0.1659
     43 F          66.9072   93.9117   11.3176 F       1  UNL1       -0.1659
@<TRIPOS>BOND
     1    11    12    1
     2    12    13    2
     3    12    14   am
     4    14    15    1
     5    15    16    1
     6    16    17    1
     7     1    17    1
     8     1     2    1
     9     2     3    1
    10     3     4    1
    11     4     5   am
    12     5     6    2
    13     5     7   am
    14     7     8    1
    15     7    28    1
    16    28    29    1
    17    28    30    1
    18    30    31   ar
    19    31    32   ar
    20    32    36    1
    21    36    37    1
    22    36    38    1
    23    36    39    1
    24    32    33   ar
    25    33    34   ar
    26    34    40    1
    27    40    41    1
    28    40    42    1
    29    40    43    1
    30    34    35   ar
    31     4     9    1
    32     9    20    1
    33    20    21   ar
    34    21    22   ar
    35    22    23   ar
    36    23    24    1
    37    23    25   ar
    38    25    26   ar
    39    26    27    1
    40     9    10    1
    41    17    18    1
    42    18    19    1
    43    19    14    1
    44    10     1    1
    45    35    30   ar
    46    26    20   ar
@<TRIPOS>MOLECULE
*****
 43 46 0 0 0
SMALL
GASTEIGER

@<TRIPOS>ATOM
      1 C          61.0939   88.7449    9.5270 C.3     1  UNL1        0.0613
      2 C          61.5637   89.6691   10.6110 C.3     1  UNL1        0.0376
      3 C          62.3766   89.1341   11.7525 C.3     1  UNL1        0.0966
      4 N          62.7197   87.6751   11.8101 N.am    1  UNL1       -0.2618
      5 C          63.5325   87.1402   12.9516 C.2     1  UNL1        0.3076
      6 O          63.8756   85.6811   13.0091 O.2     1  UNL1       -0.2523
      7 N          64.0023   88.0643   14.0356 N.am    1  UNL1       -0.2602
      8 C          64.8152   87.5294   15.1772 C.3     1  UNL1        0.1167
      9 C          62.2499   86.7509   10.7260 C.3     1  UNL1        0.1004
     10 C          61.4370   87.2858    9.5845 C.3     1  UNL1        0.0404
     11 C          58.4134   91.9434    4.0649 C.3     1  UNL1        0.0948
     12 C          57.8424   90.8845    4.9608 C.2     1  UNL1        0.2262
     13 O          56.4586   90.3606    4.7152 O.2     1  UNL1       -0.2749
     14 N          58.6553   90.3496    6.1024 N.am    1  UNL1       -0.2767
     15 C          60.0391   90.8736    6.3480 C.3     1  UNL1        0.1107
     16 C          60.8520   90.3387    7.4895 C.3     1  UNL1        0.0939
     17 N          60.2810   89.2798    8.3854 N.3     1  UNL1       -0.2710
     18 C          58.8972   88.7558    8.1398 C.3     1  UNL1        0.0939
     19 C          58.0843   89.2907    6.9983 C.3     1  UNL1        0.1107
     20 C          62.5929   85.2917   10.7835 C.ar    1  UNL1       -0.0080
     21 C          62.2500   84.4881   12.0027 C.ar    1  UNL1       -0.0007
     22 C          62.5930   83.0291   12.0603 C.ar    1  UNL1        0.0293
     23 C          63.2790   82.3735   10.8985 C.ar    1  UNL1        0.1398
     24 F          63.6221   80.9144   10.9560 F       1  UNL1       -0.2042
     25 C          63.6220   83.1771    9.6792 C.ar    1  UNL1        0.0251
     26 C          63.2789   84.6363    9.6217 C.ar    1  UNL1       -0.0220
     27 C          63.6219   85.4399    8.4025 C.3     1  UNL1        0.0308
     28 C          63.6592   89.5235   13.9782 C.3     1  UNL1        0.0994
     29 C          62.2454   89.9709   14.2034 C.3     1  UNL1        0.0265
     30 C          64.7300   90.5351   13.6955 C.ar    1  UNL1       -0.0043
     31 C          64.7328   91.2805   12.3937 C.ar    1  UNL1        0.0012
     32 C          65.8036   92.2922   12.1110 C.ar    1  UNL1        0.0711
     33 C          66.8716   92.5585   13.1300 C.ar    1  UNL1        0.0077
     34 C          66.8689   91.8131   14.4317 C.ar    1  UNL1        0.0711
     35 C          65.7981   90.8014   14.7144 C.ar    1  UNL1        0.0012
     36 C          65.8063   93.0375   10.8094 C.3     1  UNL1        0.4186
     37 F          65.8090   93.7829    9.5076 F       1  UNL1       -0.1659
     38 F          66.8961   93.9309   11.3232 F       1  UNL1       -0.1659
     39 F          64.7164   92.1442   10.2955 F       1  UNL1       -0.1659
     40 C          67.9370   92.0794   15.4507 C.3     1  UNL1        0.4186
     41 F          69.0051   92.3457   16.4696 F       1  UNL1       -0.1659
     42 F          68.9835   91.9740   14.3812 F       1  UNL1       -0.1659
     43 F          66.8904   92.1848   16.5201 F       1  UNL1       -0.1659
@<TRIPOS>BOND
     1    11    12    1
     2    12    13    2
     3    12    14   am
     4    14    15    1
     5    15    16    1
     6    16    17    1
     7     1    17    1
     8     1     2    1
     9     2     3    1
    10     3     4    1
    11     4     5   am
    12     5     6    2
    13     5     7   am
    14     7     8    1
    15     7    28    1
    16    28    29    1
    17    28    30    1
    18    30    31   ar
    19    31    32   ar
    20    32    36    1
    21    36    37    1
    22    36    38    1
    23    36    39    1
    24    32    33   ar
    25    33    34   ar
    26    34    40    1
    27    40    41    1
    28    40    42    1
    29    40    43    1
    30    34    35   ar
    31     4     9    1
    32     9    20    1
    33    20    21   ar
    34    21    22   ar
    35    22    23   ar
    36    23    24    1
    37    23    25   ar
    38    25    26   ar
    39    26    27    1
    40     9    10    1
    41    17    18    1
    42    18    19    1
    43    19    14    1
    44    10     1    1
    45    35    30   ar
    46    26    20   ar
@<TRIPOS>MOLECULE
*****
 43 46 0 0 0
SMALL
GASTEIGER

@<TRIPOS>ATOM
      1 C          62.8519   86.0303   12.2047 C.3     1  UNL1        0.0613
      2 C          63.6104   87.1159   12.9090 C.3     1  UNL1        0.0376
      3 C          63.4885   88.5375   12.4464 C.3     1  UNL1        0.0966
      4 N          62.6082   88.8736   11.2793 N.am    1  UNL1       -0.2618
      5 C          62.4864   90.2953   10.8166 C.2     1  UNL1        0.3076
      6 O          61.6061   90.6313    9.6496 O.2     1  UNL1       -0.2523
      7 N          63.2449   91.3808   11.5210 N.am    1  UNL1       -0.2602
      8 C          63.1231   92.8025   11.0583 C.3     1  UNL1        0.1167
      9 C          61.8498   87.7880   10.5749 C.3     1  UNL1        0.1004
     10 C          61.9716   86.3664   11.0376 C.3     1  UNL1        0.0404
     11 C          62.6863   79.2422   13.2741 C.3     1  UNL1        0.0948
     12 C          63.3392   80.3437   14.0554 C.2     1  UNL1        0.2262
     13 O          64.1138   80.0236   15.2993 O.2     1  UNL1       -0.2749
     14 N          63.2173   81.7654   13.5927 N.am    1  UNL1       -0.2767
     15 C          62.4427   82.0855   12.3488 C.3     1  UNL1        0.1107
     16 C          62.3209   83.5071   11.8861 C.3     1  UNL1        0.0939
     17 N          62.9737   84.6087   12.6673 N.3     1  UNL1       -0.2710
     18 C          63.7483   84.2885   13.9113 C.3     1  UNL1        0.0939
     19 C          63.8702   82.8669   14.3739 C.3     1  UNL1        0.1107
     20 C          60.9694   88.1241    9.4078 C.ar    1  UNL1       -0.0080
     21 C          60.1539   89.3830    9.4215 C.ar    1  UNL1       -0.0007
     22 C          59.2736   89.7190    8.2544 C.ar    1  UNL1        0.0293
     23 C          59.2087   88.7962    7.0736 C.ar    1  UNL1        0.1398
     24 F          58.3284   89.1323    5.9066 F       1  UNL1       -0.2042
     25 C          60.0242   87.5373    7.0599 C.ar    1  UNL1        0.0251
     26 C          60.9046   87.2013    8.2271 C.ar    1  UNL1       -0.0220
     27 C          61.7201   85.9424    8.2134 C.3     1  UNL1        0.0308
     28 C          64.1253   91.0448   12.6881 C.3     1  UNL1        0.0994
     29 C          63.5613   90.3039   13.8641 C.3     1  UNL1        0.0265
     30 C          65.5696   91.4496   12.6792 C.ar    1  UNL1       -0.0043
     31 C          66.3185   91.5852   13.9718 C.ar    1  UNL1        0.0012
     32 C          67.7628   91.9900   13.9629 C.ar    1  UNL1        0.0711
     33 C          68.4582   92.2593   12.6614 C.ar    1  UNL1        0.0077
     34 C          67.7093   92.1237   11.3688 C.ar    1  UNL1        0.0711
     35 C          66.2650   91.7189   11.3777 C.ar    1  UNL1        0.0012
     36 C          68.5116   92.1255   15.2555 C.3     1  UNL1        0.4186
     37 F          69.2605   92.2611   16.5481 F       1  UNL1       -0.1659
     38 F          67.2408   91.8893   16.0165 F       1  UNL1       -0.1659
     39 F          69.7824   92.3617   14.4945 F       1  UNL1       -0.1659
     40 C          68.4047   92.3930   10.0673 C.3     1  UNL1        0.4186
     41 F          69.1002   92.6623    8.7659 F       1  UNL1       -0.1659
     42 F          68.4160   90.9230    9.7692 F       1  UNL1       -0.1659
     43 F          68.3935   93.8630   10.3655 F       1  UNL1       -0.1659
@<TRIPOS>BOND
     1    11    12    1
     2    12    13    2
     3    12    14   am
     4    14    15    1
     5    15    16    1
     6    16    17    1
     7     1    17    1
     8     1     2    1
     9     2     3    1
    10     3     4    1
    11     4     5   am
    12     5     6    2
    13     5     7   am
    14     7     8    1
    15     7    28    1
    16    28    29    1
    17    28    30    1
    18    30    31   ar
    19    31    32   ar
    20    32    36    1
    21    36    37    1
    22    36    38    1
    23    36    39    1
    24    32    33   ar
    25    33    34   ar
    26    34    40    1
    27    40    41    1
    28    40    42    1
    29    40    43    1
    30    34    35   ar
    31     4     9    1
    32     9    20    1
    33    20    21   ar
    34    21    22   ar
    35    22    23   ar
    36    23    24    1
    37    23    25   ar
    38    25    26   ar
    39    26    27    1
    40     9    10    1
    41    17    18    1
    42    18    19    1
    43    19    14    1
    44    10     1    1
    45    35    30   ar
    46    26    20   ar
@<TRIPOS>MOLECULE
*****
 43 46 0 0 0
SMALL
GASTEIGER

@<TRIPOS>ATOM
      1 C          62.8629   86.0308   12.2164 C.3     1  UNL1        0.0613
      2 C          63.6198   87.1179   12.9200 C.3     1  UNL1        0.0376
      3 C          63.4953   88.5392   12.4569 C.3     1  UNL1        0.0966
      4 N          62.6138   88.8733   11.2902 N.am    1  UNL1       -0.2618
      5 C          62.4892   90.2946   10.8271 C.2     1  UNL1        0.3076
      6 O          61.6077   90.6288    9.6604 O.2     1  UNL1       -0.2523
      7 N          63.2462   91.3817   11.5307 N.am    1  UNL1       -0.2602
      8 C          63.1217   92.8030   11.0676 C.3     1  UNL1        0.1167
      9 C          61.8568   87.7862   10.5866 C.3     1  UNL1        0.1004
     10 C          61.9813   86.3649   11.0497 C.3     1  UNL1        0.0404
     11 C          62.6953   79.2446   13.2978 C.3     1  UNL1        0.0948
     12 C          63.3610   80.3457   14.0687 C.2     1  UNL1        0.2262
     13 O          64.1513   80.0254   15.3027 O.2     1  UNL1       -0.2749
     14 N          63.2365   81.7669   13.6056 N.am    1  UNL1       -0.2767
     15 C          62.4462   82.0872   12.3716 C.3     1  UNL1        0.1107
     16 C          62.3216   83.5084   11.9086 C.3     1  UNL1        0.0939
     17 N          62.9874   84.6095   12.6795 N.3     1  UNL1       -0.2710
     18 C          63.7777   84.2893   13.9135 C.3     1  UNL1        0.0939
     19 C          63.9022   82.8680   14.3766 C.3     1  UNL1        0.1107
     20 C          60.9752   88.1204    9.4198 C.ar    1  UNL1       -0.0080
     21 C          60.1567   89.3773    9.4340 C.ar    1  UNL1       -0.0007
     22 C          59.2752   89.7114    8.2674 C.ar    1  UNL1        0.0293
     23 C          59.2121   88.7886    7.0864 C.ar    1  UNL1        0.1398
     24 F          58.3305   89.1228    5.9197 F       1  UNL1       -0.2042
     25 C          60.0306   87.5317    7.0722 C.ar    1  UNL1        0.0251
     26 C          60.9122   87.1976    8.2390 C.ar    1  UNL1       -0.0220
     27 C          61.7307   85.9407    8.2248 C.3     1  UNL1        0.0308
     28 C          64.1278   91.0476   12.6975 C.3     1  UNL1        0.0994
     29 C          63.5650   90.3086   13.8753 C.3     1  UNL1        0.0265
     30 C          65.5720   91.4525   12.6864 C.ar    1  UNL1       -0.0043
     31 C          66.2656   91.7215   11.3838 C.ar    1  UNL1        0.0012
     32 C          67.7099   92.1263   11.3727 C.ar    1  UNL1        0.0711
     33 C          68.4606   92.2622   12.6642 C.ar    1  UNL1        0.0077
     34 C          67.7672   91.9932   13.9667 C.ar    1  UNL1        0.0711
     35 C          66.3228   91.5883   13.9779 C.ar    1  UNL1        0.0012
     36 C          68.4033   92.3953   10.0702 C.3     1  UNL1        0.4186
     37 F          69.0969   92.6644    8.7676 F       1  UNL1       -0.1659
     38 F          68.3972   93.8649   10.3704 F       1  UNL1       -0.1659
     39 F          68.4095   90.9257    9.7699 F       1  UNL1       -0.1659
     40 C          68.5179   92.1290   15.2582 C.3     1  UNL1        0.4186
     41 F          69.2687   92.2649   16.5496 F       1  UNL1       -0.1659
     42 F          69.7898   92.3531   14.4952 F       1  UNL1       -0.1659
     43 F          67.2461   91.9049   16.0211 F       1  UNL1       -0.1659
@<TRIPOS>BOND
     1    11    12    1
     2    12    13    2
     3    12    14   am
     4    14    15    1
     5    15    16    1
     6    16    17    1
     7     1    17    1
     8     1     2    1
     9     2     3    1
    10     3     4    1
    11     4     5   am
    12     5     6    2
    13     5     7   am
    14     7     8    1
    15     7    28    1
    16    28    29    1
    17    28    30    1
    18    30    31   ar
    19    31    32   ar
    20    32    36    1
    21    36    37    1
    22    36    38    1
    23    36    39    1
    24    32    33   ar
    25    33    34   ar
    26    34    40    1
    27    40    41    1
    28    40    42    1
    29    40    43    1
    30    34    35   ar
    31     4     9    1
    32     9    20    1
    33    20    21   ar
    34    21    22   ar
    35    22    23   ar
    36    23    24    1
    37    23    25   ar
    38    25    26   ar
    39    26    27    1
    40     9    10    1
    41    17    18    1
    42    18    19    1
    43    19    14    1
    44    10     1    1
    45    35    30   ar
    46    26    20   ar
