@<TRIPOS>MOLECULE
*****
 41 44 0 0 0
SMALL
GASTEIGER

@<TRIPOS>ATOM
      1 C          63.5813   86.7013   15.7108 C.3     1  UNL1        0.1760
      2 O          63.9503   87.4422   14.4598 O.3     1  UNL1       -0.3299
      3 C          63.8457   88.9114   14.7432 C.3     1  UNL1        0.2524
      4 C          63.4121   89.0787   16.1694 C.3     1  UNL1        0.1909
      5 O          63.1822   90.3827   16.8740 O.3     1  UNL1       -0.3779
      6 C          63.2487   87.7128   16.7674 C.3     1  UNL1        0.1713
      7 O          62.8268   87.4112   18.1749 O.3     1  UNL1       -0.3794
      8 H          62.9078   90.2122   17.7885 H       1  UNL1        0.2106
      9 H          62.7997   86.4504   18.3055 H       1  UNL1        0.2105
     10 N          64.1255   90.0190   13.7712 N.ar    1  UNL1       -0.2059
     11 N          63.5348   90.1585   12.3995 N.ar    1  UNL1       -0.1641
     12 C          64.0894   91.4073   11.7807 C.ar    1  UNL1        0.1261
     13 C          65.0230   92.0396   12.7700 C.ar    1  UNL1        0.0879
     14 C          65.8555   93.2858   12.7096 C.ar    1  UNL1        0.1354
     15 N          66.7105   93.6741   13.8794 N.ar    1  UNL1       -0.2019
     16 C          66.7328   92.8161   15.1096 C.ar    1  UNL1        0.2264
     17 CL         67.5877   93.2043   16.2793 Cl      1  UNL1       -0.0409
     18 N          65.9002   91.5698   15.1700 N.ar    1  UNL1       -0.1977
     19 C          65.0453   91.1816   14.0002 C.ar    1  UNL1        0.1685
     20 N          65.8332   94.1438   11.4794 N.pl3   1  UNL1       -0.3195
     21 H          65.2041   94.8985   11.4169 H       1  UNL1        0.1481
     22 C          66.7696   93.8520   10.3444 C.3     1  UNL1        0.0704
     23 C          67.5634   92.5930   10.1577 C.3     1  UNL1        0.0195
     24 C          68.3609   92.7308    8.8948 C.3     1  UNL1        0.0017
     25 C          68.0600   94.0750    8.3010 C.3     1  UNL1        0.0017
     26 C          67.0765   94.7679    9.1969 C.3     1  UNL1        0.0195
     27 C          63.5504   85.2108   15.8762 C.3     1  UNL1        0.1749
     28 O          62.6283   84.3815   15.0323 O.3     1  UNL1       -0.3402
     29 C          63.1445   83.7113   13.7937 C.3     1  UNL1        0.2394
     30 P          63.6608   83.0410   12.5551 P.3     1  UNL1        0.3654
     31 O          64.1771   82.3707   11.3165 O.2     1  UNL1       -0.2556
     32 O          62.2899   82.5000   12.2764 O.3     1  UNL1       -0.3220
     33 O          65.0318   83.5820   12.8338 O.3     1  UNL1       -0.3220
     34 H          61.6796   82.7920   12.9714 H       1  UNL1        0.2198
     35 H          65.0126   84.1073   13.6490 H       1  UNL1        0.2198
     36 C          63.9397   82.7611   14.6392 C.3     1  UNL1        0.1788
     37 O          63.9454   81.2960   14.3180 O.3     1  UNL1       -0.3790
     38 H          63.0572   80.9313   14.4556 H       1  UNL1        0.2106
     39 C          62.3493   84.6614   12.9481 C.3     1  UNL1        0.1837
     40 C          62.1963   85.8143   10.6249 C.3     1  UNL1        0.1742
     41 O          63.0080   85.3845   11.8109 O.3     1  UNL1       -0.3478
@<TRIPOS>BOND
     1    40    41    1
     2    41    39    1
     3    29    39    1
     4    29    36    1
     5    36    37    1
     6    29    28    1
     7    28    27    1
     8     1    27    1
     9     1     2    1
    10     2     3    1
    11     3    10    1
    12    10    11   ar
    13    11    12   ar
    14    12    13   ar
    15    13    14   ar
    16    14    20    1
    17    20    22    1
    18    22    23    1
    19    23    24    1
    20    24    25    1
    21    25    26    1
    22    14    15   ar
    23    15    16   ar
    24    16    17    1
    25    16    18   ar
    26    18    19   ar
    27     3     4    1
    28     4     5    1
    29     4     6    1
    30     6     7    1
    31    29    30    1
    32    30    31    2
    33    30    32    1
    34    30    33    1
    35     6     1    1
    36    19    10   ar
    37    19    13   ar
    38    26    22    1
    39    37    38    1
    40    20    21    1
    41     5     8    1
    42     7     9    1
    43    32    34    1
    44    33    35    1
@<TRIPOS>MOLECULE
*****
 41 44 0 0 0
SMALL
GASTEIGER

@<TRIPOS>ATOM
      1 C          63.5866   86.4655   15.6678 C.3     1  UNL1        0.1760
      2 O          64.1362   87.3315   14.5731 O.3     1  UNL1       -0.3299
      3 C          64.0241   88.7612   15.0127 C.3     1  UNL1        0.2524
      4 C          63.4052   88.7790   16.3790 C.3     1  UNL1        0.1909
      5 O          63.1088   90.0009   17.1969 O.3     1  UNL1       -0.3779
      6 C          63.1348   87.3602   16.7838 C.3     1  UNL1        0.1713
      7 O          62.5205   86.9143   18.0775 O.3     1  UNL1       -0.3794
      8 H          62.7098   89.7363   18.0405 H       1  UNL1        0.2106
      9 H          62.4564   85.9464   18.0884 H       1  UNL1        0.2105
     10 N          64.4552   89.9624   14.2245 N.ar    1  UNL1       -0.2059
     11 N          65.4517   90.9940   14.6636 N.ar    1  UNL1       -0.1641
     12 C          65.5778   92.0120   13.5692 C.ar    1  UNL1        0.1261
     13 C          64.6593   91.6096   12.4537 C.ar    1  UNL1        0.0879
     14 C          64.3650   92.2329   11.1215 C.ar    1  UNL1        0.1354
     15 N          63.3769   91.5896   10.1942 N.ar    1  UNL1       -0.2019
     16 C          62.6831   90.3229   10.5992 C.ar    1  UNL1        0.2264
     17 CL         61.6950   89.6795    9.6720 Cl      1  UNL1       -0.0409
     18 N          62.9774   89.6995   11.9315 N.ar    1  UNL1       -0.1977
     19 C          63.9655   90.3429   12.8587 C.ar    1  UNL1        0.1685
     20 N          65.0589   93.4997   10.7165 N.pl3   1  UNL1       -0.3195
     21 H          64.6291   94.3702   10.8799 H       1  UNL1        0.1481
     22 C          66.4075   93.4400   10.0625 C.3     1  UNL1        0.0704
     23 C          67.4069   92.3302   10.2024 C.3     1  UNL1        0.0195
     24 C          68.6106   92.6838    9.3802 C.3     1  UNL1        0.0017
     25 C          68.3550   94.0123    8.7320 C.3     1  UNL1        0.0017
     26 C          66.9935   94.4796    9.1537 C.3     1  UNL1        0.0195
     27 C          63.5033   84.9680   15.6495 C.3     1  UNL1        0.1749
     28 O          62.5062   84.2830   14.7625 O.3     1  UNL1       -0.3402
     29 C          62.9758   83.4857   13.5820 C.3     1  UNL1        0.2394
     30 P          63.4454   82.6884   12.4014 P.3     1  UNL1        0.3654
     31 O          63.9151   81.8911   11.2208 O.2     1  UNL1       -0.2556
     32 O          62.1084   82.0129   12.3256 O.3     1  UNL1       -0.3220
     33 O          64.7827   83.3639   12.4771 O.3     1  UNL1       -0.3220
     34 H          61.5338   82.3534   13.0291 H       1  UNL1        0.2198
     35 H          64.7846   83.9956   13.2132 H       1  UNL1        0.2198
     36 C          62.8947   82.2297   14.3979 C.3     1  UNL1        0.1788
     37 O          63.8784   81.1210   14.1678 O.3     1  UNL1       -0.3790
     38 H          63.7442   80.7483   13.2823 H       1  UNL1        0.2106
     39 C          63.0570   84.7418   12.7659 C.3     1  UNL1        0.1837
     40 C          61.4916   86.0658   11.1702 C.3     1  UNL1        0.1742
     41 O          62.3084   84.8440   11.4702 O.3     1  UNL1       -0.3478
@<TRIPOS>BOND
     1    40    41    1
     2    41    39    1
     3    29    39    1
     4    29    36    1
     5    36    37    1
     6    29    28    1
     7    28    27    1
     8     1    27    1
     9     1     2    1
    10     2     3    1
    11     3    10    1
    12    10    11   ar
    13    11    12   ar
    14    12    13   ar
    15    13    14   ar
    16    14    20    1
    17    20    22    1
    18    22    23    1
    19    23    24    1
    20    24    25    1
    21    25    26    1
    22    14    15   ar
    23    15    16   ar
    24    16    17    1
    25    16    18   ar
    26    18    19   ar
    27     3     4    1
    28     4     5    1
    29     4     6    1
    30     6     7    1
    31    29    30    1
    32    30    31    2
    33    30    32    1
    34    30    33    1
    35     6     1    1
    36    19    10   ar
    37    19    13   ar
    38    26    22    1
    39    37    38    1
    40    20    21    1
    41     5     8    1
    42     7     9    1
    43    32    34    1
    44    33    35    1
@<TRIPOS>MOLECULE
*****
 41 44 0 0 0
SMALL
GASTEIGER

@<TRIPOS>ATOM
      1 C          64.2839   90.6521   14.4270 C.3     1  UNL1        0.1760
      2 O          64.4981   89.3616   13.6930 O.3     1  UNL1       -0.3299
      3 C          64.0867   88.2392   14.5990 C.3     1  UNL1        0.2524
      4 C          63.6182   88.8359   15.8930 C.3     1  UNL1        0.1909
      5 O          63.1161   88.0751   17.0841 O.3     1  UNL1       -0.3779
      6 C          63.7401   90.3272   15.7867 C.3     1  UNL1        0.1713
      7 O          63.3811   91.3194   16.8529 O.3     1  UNL1       -0.3794
      8 H          62.8772   88.6979   17.7884 H       1  UNL1        0.2106
      9 H          63.5546   92.2176   16.5303 H       1  UNL1        0.2105
     10 N          64.1353   86.7767   14.2690 N.ar    1  UNL1       -0.2059
     11 N          64.8176   85.7128   15.0768 N.ar    1  UNL1       -0.1641
     12 C          64.6141   84.4000   14.3803 C.ar    1  UNL1        0.1261
     13 C          63.8060   84.6526   13.1421 C.ar    1  UNL1        0.0879
     14 C          63.3014   83.7348   12.0683 C.ar    1  UNL1        0.1354
     15 N          62.5008   84.2859   10.9257 N.ar    1  UNL1       -0.2019
     16 C          62.2049   85.7548   10.8569 C.ar    1  UNL1        0.2264
     17 CL         61.4044   86.3059    9.7144 Cl      1  UNL1       -0.0409
     18 N          62.7096   86.6726   11.9308 N.ar    1  UNL1       -0.1977
     19 C          63.5101   86.1215   13.0733 C.ar    1  UNL1        0.1685
     20 N          63.5973   82.2659   12.1371 N.pl3   1  UNL1       -0.3195
     21 H          64.4074   81.9063   11.7086 H       1  UNL1        0.1481
     22 C          62.6587   81.3447   12.8588 C.3     1  UNL1        0.0704
     23 C          61.5961   81.7560   13.8343 C.3     1  UNL1        0.0195
     24 C          60.8987   80.5161   14.3101 C.3     1  UNL1        0.0017
     25 C          61.5303   79.3386   13.6286 C.3     1  UNL1        0.0017
     26 C          62.6181   79.8507   12.7316 C.3     1  UNL1        0.0195
     27 C          64.5642   92.0261   13.8948 C.3     1  UNL1        0.1749
     28 O          65.4614   92.9567   14.6560 O.3     1  UNL1       -0.3402
     29 C          66.9510   92.8197   14.5456 C.3     1  UNL1        0.2394
     30 P          68.4407   92.6827   14.4354 P.3     1  UNL1        0.3654
     31 O          69.9304   92.5458   14.3252 O.2     1  UNL1       -0.2556
     32 O          68.2757   91.9175   13.1559 O.3     1  UNL1       -0.3220
     33 O          68.6058   93.4480   15.7150 O.3     1  UNL1       -0.3220
     34 H          67.3319   91.8361   12.9473 H       1  UNL1        0.2198
     35 H          67.7331   93.6964   16.0580 H       1  UNL1        0.2198
     36 C          67.0567   92.7643   16.0409 C.3     1  UNL1        0.1788
     37 O          65.8472   93.0265   16.8885 O.3     1  UNL1       -0.3790
     38 H          65.5698   93.9496   16.7794 H       1  UNL1        0.2106
     39 C          66.8454   92.8751   13.0504 C.3     1  UNL1        0.1837
     40 C          65.9220   94.3226   11.1005 C.3     1  UNL1        0.1742
     41 O          66.7352   94.1995   12.3549 O.3     1  UNL1       -0.3478
@<TRIPOS>BOND
     1    40    41    1
     2    41    39    1
     3    29    39    1
     4    29    36    1
     5    36    37    1
     6    29    28    1
     7    28    27    1
     8     1    27    1
     9     1     2    1
    10     2     3    1
    11     3    10    1
    12    10    11   ar
    13    11    12   ar
    14    12    13   ar
    15    13    14   ar
    16    14    20    1
    17    20    22    1
    18    22    23    1
    19    23    24    1
    20    24    25    1
    21    25    26    1
    22    14    15   ar
    23    15    16   ar
    24    16    17    1
    25    16    18   ar
    26    18    19   ar
    27     3     4    1
    28     4     5    1
    29     4     6    1
    30     6     7    1
    31    29    30    1
    32    30    31    2
    33    30    32    1
    34    30    33    1
    35     6     1    1
    36    19    10   ar
    37    19    13   ar
    38    26    22    1
    39    37    38    1
    40    20    21    1
    41     5     8    1
    42     7     9    1
    43    32    34    1
    44    33    35    1
@<TRIPOS>MOLECULE
*****
 41 44 0 0 0
SMALL
GASTEIGER

@<TRIPOS>ATOM
      1 C          65.1832   92.1296   13.6446 C.3     1  UNL1        0.1760
      2 O          64.6912   91.5780   12.3393 O.3     1  UNL1       -0.3299
      3 C          63.6087   90.5827   12.6352 C.3     1  UNL1        0.2524
      4 C          63.4317   90.5191   14.1234 C.3     1  UNL1        0.1909
      5 O          62.4535   89.6518   14.8587 O.3     1  UNL1       -0.3779
      6 C          64.4048   91.4751   14.7472 C.3     1  UNL1        0.1713
      7 O          64.5705   91.7316   16.2158 O.3     1  UNL1       -0.3794
      8 H          62.5426   89.8011   15.8130 H       1  UNL1        0.2106
      9 H          65.2661   92.3938   16.3519 H       1  UNL1        0.2105
     10 N          62.8384   89.7901   11.6211 N.ar    1  UNL1       -0.2059
     11 N          62.1248   90.3460   10.4245 N.ar    1  UNL1       -0.1641
     12 C          61.4919   89.2018    9.6894 C.ar    1  UNL1        0.1261
     13 C          61.8144   87.9388   10.4317 C.ar    1  UNL1        0.0879
     14 C          61.4577   86.5047   10.1746 C.ar    1  UNL1        0.1354
     15 N          61.9333   85.4341   11.1115 N.ar    1  UNL1       -0.2019
     16 C          62.7655   85.7976   12.3054 C.ar    1  UNL1        0.2264
     17 CL         63.2410   84.7271   13.2422 Cl      1  UNL1       -0.0409
     18 N          63.1221   87.2318   12.5623 N.ar    1  UNL1       -0.1977
     19 C          62.6466   88.3024   11.6255 C.ar    1  UNL1        0.1685
     20 N          60.6255   86.1412    8.9808 N.pl3   1  UNL1       -0.3195
     21 H          59.6658   86.3602    8.9646 H       1  UNL1        0.1481
     22 C          61.2556   85.4439    7.8116 C.3     1  UNL1        0.0704
     23 C          62.7201   85.1751    7.6300 C.3     1  UNL1        0.0195
     24 C          62.9014   84.4581    6.3249 C.3     1  UNL1        0.0017
     25 C          61.5489   84.2839    5.7000 C.3     1  UNL1        0.0017
     26 C          60.5317   84.8931    6.6188 C.3     1  UNL1        0.0195
     27 C          66.2638   93.1554   13.8169 C.3     1  UNL1        0.1749
     28 O          67.2807   93.3629   12.7338 O.3     1  UNL1       -0.3402
     29 C          66.8712   93.9774   11.4283 C.3     1  UNL1        0.2394
     30 P          66.4617   94.5920   10.1227 P.3     1  UNL1        0.3654
     31 O          66.0521   95.2065    8.8171 O.2     1  UNL1       -0.2556
     32 O          67.6942   95.4467   10.1383 O.3     1  UNL1       -0.3220
     33 O          65.2291   93.7373   10.1070 O.3     1  UNL1       -0.3220
     34 H          68.2096   95.2562   10.9377 H       1  UNL1        0.2198
     35 H          65.2131   93.1783   10.8996 H       1  UNL1        0.2198
     36 C          66.3512   95.1806   12.1577 C.3     1  UNL1        0.1788
     37 O          65.4188   96.1312   11.4672 O.3     1  UNL1       -0.3790
     38 H          65.8860   96.5715   10.7401 H       1  UNL1        0.2106
     39 C          67.3913   92.7742   10.6988 C.3     1  UNL1        0.1837
     40 C          68.8384   92.1599    8.6304 C.3     1  UNL1        0.1742
     41 O          68.6899   92.8532    9.9522 O.3     1  UNL1       -0.3478
@<TRIPOS>BOND
     1    40    41    1
     2    41    39    1
     3    29    39    1
     4    29    36    1
     5    36    37    1
     6    29    28    1
     7    28    27    1
     8     1    27    1
     9     1     2    1
    10     2     3    1
    11     3    10    1
    12    10    11   ar
    13    11    12   ar
    14    12    13   ar
    15    13    14   ar
    16    14    20    1
    17    20    22    1
    18    22    23    1
    19    23    24    1
    20    24    25    1
    21    25    26    1
    22    14    15   ar
    23    15    16   ar
    24    16    17    1
    25    16    18   ar
    26    18    19   ar
    27     3     4    1
    28     4     5    1
    29     4     6    1
    30     6     7    1
    31    29    30    1
    32    30    31    2
    33    30    32    1
    34    30    33    1
    35     6     1    1
    36    19    10   ar
    37    19    13   ar
    38    26    22    1
    39    37    38    1
    40    20    21    1
    41     5     8    1
    42     7     9    1
    43    32    34    1
    44    33    35    1
@<TRIPOS>MOLECULE
*****
 41 44 0 0 0
SMALL
GASTEIGER

@<TRIPOS>ATOM
      1 C          64.4683   90.6733   14.5145 C.3     1  UNL1        0.1760
      2 O          64.7100   89.3879   13.7799 O.3     1  UNL1       -0.3299
      3 C          64.1730   88.2665   14.6190 C.3     1  UNL1        0.2524
      4 C          63.5994   88.8587   15.8721 C.3     1  UNL1        0.1909
      5 O          62.9563   88.0972   16.9930 O.3     1  UNL1       -0.3779
      6 C          63.7819   90.3461   15.8075 C.3     1  UNL1        0.1713
      7 O          63.3532   91.3332   16.8525 O.3     1  UNL1       -0.3794
      8 H          62.6703   88.7167   17.6824 H       1  UNL1        0.2106
      9 H          63.5882   92.2297   16.5661 H       1  UNL1        0.2105
     10 N          64.2042   86.8087   14.2668 N.ar    1  UNL1       -0.2059
     11 N          64.9039   85.7299   15.0391 N.ar    1  UNL1       -0.1641
     12 C          64.6733   84.4283   14.3300 C.ar    1  UNL1        0.1261
     13 C          63.8310   84.7028   13.1195 C.ar    1  UNL1        0.0879
     14 C          63.2906   83.8032   12.0479 C.ar    1  UNL1        0.1354
     15 N          62.4602   84.3747   10.9370 N.ar    1  UNL1       -0.2019
     16 C          62.1703   85.8459   10.8979 C.ar    1  UNL1        0.2264
     17 CL         61.3400   86.4175    9.7872 Cl      1  UNL1       -0.0409
     18 N          62.7108   86.7456   11.9697 N.ar    1  UNL1       -0.1977
     19 C          63.5411   86.1740   13.0805 C.ar    1  UNL1        0.1685
     20 N          63.5805   82.3320   12.0869 N.pl3   1  UNL1       -0.3195
     21 H          64.3729   81.9740   11.6253 H       1  UNL1        0.1481
     22 C          62.6629   81.4062   12.8293 C.3     1  UNL1        0.0704
     23 C          61.6191   81.8123   13.8272 C.3     1  UNL1        0.0195
     24 C          60.9391   80.5690   14.3188 C.3     1  UNL1        0.0017
     25 C          61.5627   79.3944   13.6247 C.3     1  UNL1        0.0017
     26 C          62.6280   79.9118   12.7042 C.3     1  UNL1        0.0195
     27 C          64.8465   92.0448   14.0394 C.3     1  UNL1        0.1749
     28 O          64.5207   92.4696   12.6381 O.3     1  UNL1       -0.3402
     29 C          65.6198   92.8833   11.7052 C.3     1  UNL1        0.2394
     30 P          66.7191   93.2971   10.7722 P.3     1  UNL1        0.3654
     31 O          67.8183   93.7110    9.8391 O.2     1  UNL1       -0.2556
     32 O          67.7292   92.6598   11.6795 O.3     1  UNL1       -0.3220
     33 O          65.7090   93.9345    9.8647 O.3     1  UNL1       -0.3220
     34 H          67.2768   92.2701   12.4439 H       1  UNL1        0.2198
     35 H          64.8210   93.8196   10.2380 H       1  UNL1        0.2198
     36 C          66.1951   93.7648   12.7738 C.3     1  UNL1        0.1788
     37 O          66.1741   95.2555   12.6082 O.3     1  UNL1       -0.3790
     38 H          66.7457   95.5064   11.8657 H       1  UNL1        0.2106
     39 C          65.0446   92.0018   10.6364 C.3     1  UNL1        0.1837
     40 C          62.8741   90.6038   10.3459 C.3     1  UNL1        0.1742
     41 O          63.5592   91.9350   10.4385 O.3     1  UNL1       -0.3478
@<TRIPOS>BOND
     1    40    41    1
     2    41    39    1
     3    29    39    1
     4    29    36    1
     5    36    37    1
     6    29    28    1
     7    28    27    1
     8     1    27    1
     9     1     2    1
    10     2     3    1
    11     3    10    1
    12    10    11   ar
    13    11    12   ar
    14    12    13   ar
    15    13    14   ar
    16    14    20    1
    17    20    22    1
    18    22    23    1
    19    23    24    1
    20    24    25    1
    21    25    26    1
    22    14    15   ar
    23    15    16   ar
    24    16    17    1
    25    16    18   ar
    26    18    19   ar
    27     3     4    1
    28     4     5    1
    29     4     6    1
    30     6     7    1
    31    29    30    1
    32    30    31    2
    33    30    32    1
    34    30    33    1
    35     6     1    1
    36    19    10   ar
    37    19    13   ar
    38    26    22    1
    39    37    38    1
    40    20    21    1
    41     5     8    1
    42     7     9    1
    43    32    34    1
    44    33    35    1
@<TRIPOS>MOLECULE
*****
 41 44 0 0 0
SMALL
GASTEIGER

@<TRIPOS>ATOM
      1 C          64.0462   88.2832   14.0034 C.3     1  UNL1        0.1760
      2 O          62.9926   87.9575   12.9866 O.3     1  UNL1       -0.3299
      3 C          62.6241   89.2271   12.2779 C.3     1  UNL1        0.2524
      4 C          63.4500   90.3375   12.8566 C.3     1  UNL1        0.1909
      5 O          63.4049   91.7783   12.4418 O.3     1  UNL1       -0.3779
      6 C          64.3289   89.7542   13.9230 C.3     1  UNL1        0.1713
      7 O          65.3170   90.5092   14.7618 O.3     1  UNL1       -0.3794
      8 H          64.0376   92.2874   12.9723 H       1  UNL1        0.2106
      9 H          65.7546   89.8979   15.3747 H       1  UNL1        0.2105
     10 N          61.6081   89.3625   11.1827 N.ar    1  UNL1       -0.2059
     11 N          60.6129   90.4752   11.0359 N.ar    1  UNL1       -0.1641
     12 C          59.7988   90.2094    9.8045 C.ar    1  UNL1        0.1261
     13 C          60.2908   88.9325    9.1902 C.ar    1  UNL1        0.0879
     14 C          59.8650   88.1787    7.9652 C.ar    1  UNL1        0.1354
     15 N          60.5575   86.9015    7.5920 N.ar    1  UNL1       -0.2019
     16 C          61.6758   86.3781    8.4438 C.ar    1  UNL1        0.2264
     17 CL         62.3683   85.1010    8.0706 Cl      1  UNL1       -0.0409
     18 N          62.1016   87.1319    9.6688 N.ar    1  UNL1       -0.1977
     19 C          61.4091   88.4091   10.0419 C.ar    1  UNL1        0.1685
     20 N          58.7467   88.7021    7.1135 N.pl3   1  UNL1       -0.3195
     21 H          57.8560   88.2853    7.1599 H       1  UNL1        0.1481
     22 C          58.9856   89.8605    6.1909 C.3     1  UNL1        0.0704
     23 C          57.9369   90.7837    5.6450 C.3     1  UNL1        0.0195
     24 C          58.6182   91.7929    4.7690 C.3     1  UNL1        0.0017
     25 C          60.0880   91.4934    4.7736 C.3     1  UNL1        0.0017
     26 C          60.3150   90.2992    5.6524 C.3     1  UNL1        0.0195
     27 C          64.7020   87.3091   14.9367 C.3     1  UNL1        0.1749
     28 O          65.0119   85.9171   14.4714 O.3     1  UNL1       -0.3402
     29 C          63.9657   84.8460   14.5610 C.3     1  UNL1        0.2394
     30 P          62.9195   83.7749   14.6506 P.3     1  UNL1        0.3654
     31 O          61.8731   82.7038   14.7401 O.2     1  UNL1       -0.2556
     32 O          63.8246   82.9642   15.5299 O.3     1  UNL1       -0.3220
     33 O          62.0142   84.5856   13.7712 O.3     1  UNL1       -0.3220
     34 H          64.6577   83.4425   15.6648 H       1  UNL1        0.2198
     35 H          62.4569   85.4134   13.5270 H       1  UNL1        0.2198
     36 C          63.6917   85.2326   15.9842 C.3     1  UNL1        0.1788
     37 O          62.2855   85.2246   16.5061 O.3     1  UNL1       -0.3790
     38 H          61.7675   85.9062   16.0501 H       1  UNL1        0.2106
     39 C          64.2397   84.4594   13.1378 C.3     1  UNL1        0.1837
     40 C          64.2745   82.5745   11.3501 C.3     1  UNL1        0.1742
     41 O          64.4268   83.0158   12.7755 O.3     1  UNL1       -0.3478
@<TRIPOS>BOND
     1    40    41    1
     2    41    39    1
     3    29    39    1
     4    29    36    1
     5    36    37    1
     6    29    28    1
     7    28    27    1
     8     1    27    1
     9     1     2    1
    10     2     3    1
    11     3    10    1
    12    10    11   ar
    13    11    12   ar
    14    12    13   ar
    15    13    14   ar
    16    14    20    1
    17    20    22    1
    18    22    23    1
    19    23    24    1
    20    24    25    1
    21    25    26    1
    22    14    15   ar
    23    15    16   ar
    24    16    17    1
    25    16    18   ar
    26    18    19   ar
    27     3     4    1
    28     4     5    1
    29     4     6    1
    30     6     7    1
    31    29    30    1
    32    30    31    2
    33    30    32    1
    34    30    33    1
    35     6     1    1
    36    19    10   ar
    37    19    13   ar
    38    26    22    1
    39    37    38    1
    40    20    21    1
    41     5     8    1
    42     7     9    1
    43    32    34    1
    44    33    35    1
@<TRIPOS>MOLECULE
*****
 41 44 0 0 0
SMALL
GASTEIGER

@<TRIPOS>ATOM
      1 C          61.9053   86.6520   10.7103 C.3     1  UNL1        0.1760
      2 O          62.8344   87.3843   11.6326 O.3     1  UNL1       -0.3299
      3 C          62.6529   88.8552   11.4014 C.3     1  UNL1        0.2524
      4 C          61.6117   89.0320   10.3362 C.3     1  UNL1        0.1909
      5 O          61.1190   90.3406    9.7934 O.3     1  UNL1       -0.3779
      6 C          61.1496   87.6704    9.9091 C.3     1  UNL1        0.1713
      7 O          60.1138   87.3783    8.8643 O.3     1  UNL1       -0.3794
      8 H          60.4464   90.1762    9.1141 H       1  UNL1        0.2106
      9 H          60.0012   86.4185    8.7800 H       1  UNL1        0.2105
     10 N          63.3843   89.9561   12.1107 N.ar    1  UNL1       -0.2059
     11 N          64.0456   91.1359   11.4622 N.ar    1  UNL1       -0.1641
     12 C          64.6528   91.9794   12.5439 C.ar    1  UNL1        0.1261
     13 C          64.3666   91.3208   13.8609 C.ar    1  UNL1        0.0879
     14 C          64.7186   91.6983   15.2693 C.ar    1  UNL1        0.1354
     15 N          64.2867   90.8252   16.4100 N.ar    1  UNL1       -0.2019
     16 C          63.5027   89.5747   16.1423 C.ar    1  UNL1        0.2264
     17 CL         63.0707   88.7017   17.2830 Cl      1  UNL1       -0.0409
     18 N          63.1507   89.1973   14.7338 N.ar    1  UNL1       -0.1977
     19 C          63.5826   90.0703   13.5932 C.ar    1  UNL1        0.1685
     20 N          65.5026   92.9488   15.5370 N.pl3   1  UNL1       -0.3195
     21 H          65.0380   93.7709   15.8152 H       1  UNL1        0.1481
     22 C          66.9945   92.9465   15.3807 C.3     1  UNL1        0.0704
     23 C          67.7790   92.1038   14.4193 C.3     1  UNL1        0.0195
     24 C          69.2331   92.4230   14.6027 C.3     1  UNL1        0.0017
     25 C          69.3473   93.4631   15.6776 C.3     1  UNL1        0.0017
     26 C          67.9637   93.7867   16.1583 C.3     1  UNL1        0.0195
     27 C          61.7578   85.1629   10.6074 C.3     1  UNL1        0.1749
     28 O          62.9708   84.2999   10.4228 O.3     1  UNL1       -0.3402
     29 C          63.2929   83.2340   11.4276 C.3     1  UNL1        0.2394
     30 P          63.6150   82.1679   12.4325 P.3     1  UNL1        0.3654
     31 O          63.9373   81.1019   13.4374 O.2     1  UNL1       -0.2556
     32 O          62.1621   82.0668   12.7911 O.3     1  UNL1       -0.3220
     33 O          65.0681   82.2690   12.0740 O.3     1  UNL1       -0.3220
     34 H          61.6525   82.6949   12.2557 H       1  UNL1        0.2198
     35 H          65.1849   82.9408   11.3841 H       1  UNL1        0.2198
     36 C          63.6229   82.2843   10.3145 C.3     1  UNL1        0.1788
     37 O          63.1686   80.8566   10.3872 O.3     1  UNL1       -0.3790
     38 H          63.6205   80.4105   11.1205 H       1  UNL1        0.2106
     39 C          62.9629   84.1837   12.5409 C.3     1  UNL1        0.1837
     40 C          64.0641   85.6671   14.3676 C.3     1  UNL1        0.1742
     41 O          63.9006   84.3328   13.7021 O.3     1  UNL1       -0.3478
@<TRIPOS>BOND
     1    40    41    1
     2    41    39    1
     3    29    39    1
     4    29    36    1
     5    36    37    1
     6    29    28    1
     7    28    27    1
     8     1    27    1
     9     1     2    1
    10     2     3    1
    11     3    10    1
    12    10    11   ar
    13    11    12   ar
    14    12    13   ar
    15    13    14   ar
    16    14    20    1
    17    20    22    1
    18    22    23    1
    19    23    24    1
    20    24    25    1
    21    25    26    1
    22    14    15   ar
    23    15    16   ar
    24    16    17    1
    25    16    18   ar
    26    18    19   ar
    27     3     4    1
    28     4     5    1
    29     4     6    1
    30     6     7    1
    31    29    30    1
    32    30    31    2
    33    30    32    1
    34    30    33    1
    35     6     1    1
    36    19    10   ar
    37    19    13   ar
    38    26    22    1
    39    37    38    1
    40    20    21    1
    41     5     8    1
    42     7     9    1
    43    32    34    1
    44    33    35    1
@<TRIPOS>MOLECULE
*****
 41 44 0 0 0
SMALL
GASTEIGER

@<TRIPOS>ATOM
      1 C          64.1034   88.0160   13.7784 C.3     1  UNL1        0.1760
      2 O          63.0829   87.7334   12.7159 O.3     1  UNL1       -0.3299
      3 C          62.6083   89.0467   12.1681 C.3     1  UNL1        0.2524
      4 C          63.3353   90.1409   12.8920 C.3     1  UNL1        0.1909
      5 O          63.1679   91.6135   12.6612 O.3     1  UNL1       -0.3779
      6 C          64.2593   89.5039   13.8872 C.3     1  UNL1        0.1713
      7 O          65.1781   90.2277   14.8264 O.3     1  UNL1       -0.3794
      8 H          63.7539   92.1032   13.2593 H       1  UNL1        0.2106
      9 H          65.6655   89.5830   15.3628 H       1  UNL1        0.2105
     10 N          61.5860   89.2330   11.0863 N.ar    1  UNL1       -0.2059
     11 N          60.6107   90.3678   10.9809 N.ar    1  UNL1       -0.1641
     12 C          59.7815   90.1534    9.7494 C.ar    1  UNL1        0.1261
     13 C          60.2444   88.8862    9.0937 C.ar    1  UNL1        0.0879
     14 C          59.7944   88.1767    7.8511 C.ar    1  UNL1        0.1354
     15 N          60.4598   86.8984    7.4346 N.ar    1  UNL1       -0.2019
     16 C          61.5750   86.3296    8.2609 C.ar    1  UNL1        0.2264
     17 CL         62.2403   85.0514    7.8445 Cl      1  UNL1       -0.0409
     18 N          62.0249   87.0391    9.5036 N.ar    1  UNL1       -0.1977
     19 C          61.3596   88.3173    9.9200 C.ar    1  UNL1        0.1685
     20 N          58.6792   88.7455    7.0248 N.pl3   1  UNL1       -0.3195
     21 H          57.7767   88.3563    7.0815 H       1  UNL1        0.1481
     22 C          58.9391   89.9073    6.1122 C.3     1  UNL1        0.0704
     23 C          60.2818   90.3554    5.6159 C.3     1  UNL1        0.0195
     24 C          60.0746   91.5500    4.7327 C.3     1  UNL1        0.0017
     25 C          58.6037   91.8402    4.6832 C.3     1  UNL1        0.0017
     26 C          57.9020   90.8250    5.5358 C.3     1  UNL1        0.0195
     27 C          64.8386   86.9907   14.5896 C.3     1  UNL1        0.1749
     28 O          64.0925   86.1317   15.5671 O.3     1  UNL1       -0.3402
     29 C          63.7490   84.7157   15.2114 C.3     1  UNL1        0.2394
     30 P          63.4054   83.2995   14.8557 P.3     1  UNL1        0.3654
     31 O          63.0618   81.8834   14.4999 O.2     1  UNL1       -0.2556
     32 O          64.5491   82.8113   15.6944 O.3     1  UNL1       -0.3220
     33 O          62.2617   83.7877   14.0168 O.3     1  UNL1       -0.3220
     34 H          65.0051   83.5695   16.0921 H       1  UNL1        0.2198
     35 H          62.2246   84.7563   14.0529 H       1  UNL1        0.2198
     36 C          64.8958   84.6801   14.2453 C.3     1  UNL1        0.1788
     37 O          64.8552   83.7531   13.0667 O.3     1  UNL1       -0.3790
     38 H          64.8758   82.8343   13.3771 H       1  UNL1        0.2106
     39 C          62.6020   84.7512   16.1776 C.3     1  UNL1        0.1837
     40 C          62.5550   86.5318   18.0689 C.3     1  UNL1        0.1742
     41 O          62.1136   86.0641   16.7138 O.3     1  UNL1       -0.3478
@<TRIPOS>BOND
     1    40    41    1
     2    41    39    1
     3    29    39    1
     4    29    36    1
     5    36    37    1
     6    29    28    1
     7    28    27    1
     8     1    27    1
     9     1     2    1
    10     2     3    1
    11     3    10    1
    12    10    11   ar
    13    11    12   ar
    14    12    13   ar
    15    13    14   ar
    16    14    20    1
    17    20    22    1
    18    22    23    1
    19    23    24    1
    20    24    25    1
    21    25    26    1
    22    14    15   ar
    23    15    16   ar
    24    16    17    1
    25    16    18   ar
    26    18    19   ar
    27     3     4    1
    28     4     5    1
    29     4     6    1
    30     6     7    1
    31    29    30    1
    32    30    31    2
    33    30    32    1
    34    30    33    1
    35     6     1    1
    36    19    10   ar
    37    19    13   ar
    38    26    22    1
    39    37    38    1
    40    20    21    1
    41     5     8    1
    42     7     9    1
    43    32    34    1
    44    33    35    1
@<TRIPOS>MOLECULE
*****
 41 44 0 0 0
SMALL
GASTEIGER

@<TRIPOS>ATOM
      1 C          63.1011   87.2479   12.7295 C.3     1  UNL1        0.1760
      2 O          63.9732   88.4669   12.7896 O.3     1  UNL1       -0.3299
      3 C          63.4137   89.4844   11.8400 C.3     1  UNL1        0.2524
      4 C          62.1958   88.8943   11.1931 C.3     1  UNL1        0.1909
      5 O          61.3242   89.5681   10.1752 O.3     1  UNL1       -0.3779
      6 C          62.0026   87.5121   11.7428 C.3     1  UNL1        0.1713
      7 O          60.9038   86.5611   11.3712 O.3     1  UNL1       -0.3794
      8 H          60.6046   88.9701    9.9192 H       1  UNL1        0.2106
      9 H          61.0080   85.7357   11.8700 H       1  UNL1        0.2105
     10 N          63.9738   90.8518   11.5825 N.ar    1  UNL1       -0.2059
     11 N          63.6271   91.7434   10.4272 N.ar    1  UNL1       -0.1641
     12 C          64.4180   93.0104   10.5658 C.ar    1  UNL1        0.1261
     13 C          65.2535   92.9019   11.8068 C.ar    1  UNL1        0.0879
     14 C          66.2288   93.8454   12.4459 C.ar    1  UNL1        0.1354
     15 N          66.9297   93.4549   13.7133 N.ar    1  UNL1       -0.2019
     16 C          66.6552   92.1208   14.3417 C.ar    1  UNL1        0.2264
     17 CL         67.3560   91.7303   15.6091 Cl      1  UNL1       -0.0409
     18 N          65.6798   91.1772   13.7026 N.ar    1  UNL1       -0.1977
     19 C          64.9790   91.5678   12.4352 C.ar    1  UNL1        0.1685
     20 N          66.5033   95.1795   11.8175 N.pl3   1  UNL1       -0.3195
     21 H          66.5031   95.9937   12.3710 H       1  UNL1        0.1481
     22 C          66.7782   95.2731   10.3458 C.3     1  UNL1        0.0704
     23 C          67.6937   94.3807    9.5614 C.3     1  UNL1        0.0195
     24 C          67.6671   94.8315    8.1310 C.3     1  UNL1        0.0017
     25 C          66.7351   96.0026    8.0314 C.3     1  UNL1        0.0017
     26 C          66.1857   96.2755    9.4002 C.3     1  UNL1        0.0195
     27 C          63.2936   85.9864   13.5177 C.3     1  UNL1        0.1749
     28 O          62.3667   84.8249   13.3126 O.3     1  UNL1       -0.3402
     29 C          62.8421   83.4287   13.5854 C.3     1  UNL1        0.2394
     30 P          63.3175   82.0325   13.8583 P.3     1  UNL1        0.3654
     31 O          63.7929   80.6362   14.1313 O.2     1  UNL1       -0.2556
     32 O          64.4043   82.2031   12.8388 O.3     1  UNL1       -0.3220
     33 O          62.2307   81.8617   14.8780 O.3     1  UNL1       -0.3220
     34 H          64.3488   83.0912   12.4526 H       1  UNL1        0.2198
     35 H          61.7065   82.6762   14.9314 H       1  UNL1        0.2198
     36 C          63.1166   83.8010   15.0123 C.3     1  UNL1        0.1788
     37 O          64.3667   83.3183   15.6862 O.3     1  UNL1       -0.3790
     38 H          64.3347   82.3528   15.7736 H       1  UNL1        0.2106
     39 C          62.5676   83.0564   12.1585 C.3     1  UNL1        0.1837
     40 C          63.5544   83.9890    9.9434 C.3     1  UNL1        0.1742
     41 O          62.5950   84.1090   11.0902 O.3     1  UNL1       -0.3478
@<TRIPOS>BOND
     1    40    41    1
     2    41    39    1
     3    29    39    1
     4    29    36    1
     5    36    37    1
     6    29    28    1
     7    28    27    1
     8     1    27    1
     9     1     2    1
    10     2     3    1
    11     3    10    1
    12    10    11   ar
    13    11    12   ar
    14    12    13   ar
    15    13    14   ar
    16    14    20    1
    17    20    22    1
    18    22    23    1
    19    23    24    1
    20    24    25    1
    21    25    26    1
    22    14    15   ar
    23    15    16   ar
    24    16    17    1
    25    16    18   ar
    26    18    19   ar
    27     3     4    1
    28     4     5    1
    29     4     6    1
    30     6     7    1
    31    29    30    1
    32    30    31    2
    33    30    32    1
    34    30    33    1
    35     6     1    1
    36    19    10   ar
    37    19    13   ar
    38    26    22    1
    39    37    38    1
    40    20    21    1
    41     5     8    1
    42     7     9    1
    43    32    34    1
    44    33    35    1
