@<TRIPOS>MOLECULE
*****
 26 29 0 0 0
SMALL
GASTEIGER

@<TRIPOS>ATOM
      1 C          65.9387   93.5215   12.0930 C.2     1  UNL1        0.0919
      2 C          66.4737   93.9705   13.4204 C.2     1  UNL1        0.0183
      3 C          66.2688   93.1194   14.6384 C.2     1  UNL1        0.0511
      4 C          65.5288   91.8193   14.5290 C.2     1  UNL1        0.2322
      5 N          65.1753   90.7767   15.5479 N.2     1  UNL1       -0.0308
      6 C          64.4218   89.6834   14.8502 C.2     1  UNL1        0.3752
      7 N          64.3096   90.0502   13.4001 N.2     1  UNL1       -0.0347
      8 C          64.9938   91.3702   13.2016 C.2     1  UNL1        0.2191
      9 C          65.1987   92.2214   11.9836 C.3     1  UNL1        0.1226
     10 C          63.8762   88.4413   15.4903 C.ar    1  UNL1        0.0884
     11 C          63.2599   88.5101   16.8562 C.ar    1  UNL1        0.0077
     12 C          62.7144   87.2681   17.4963 C.ar    1  UNL1        0.0003
     13 C          62.7851   85.9573   16.7705 C.ar    1  UNL1        0.0000
     14 C          63.4014   85.8885   15.4047 C.ar    1  UNL1        0.0002
     15 C          63.9469   87.1305   14.7646 C.ar    1  UNL1        0.0077
     16 C          63.4721   84.5776   14.6790 C.ar    1  UNL1        0.0000
     17 C          62.5343   83.4658   15.0456 C.ar    1  UNL1        0.0000
     18 C          62.6051   82.1550   14.3199 C.ar    1  UNL1        0.0000
     19 C          63.6136   81.9559   13.2276 C.ar    1  UNL1        0.0000
     20 C          64.5514   83.0677   12.8610 C.ar    1  UNL1        0.0000
     21 C          64.4807   84.3785   13.5867 C.ar    1  UNL1        0.0000
     22 S          66.1436   94.3727   10.8750 S.O2    1  UNL1        0.0054
     23 O          66.1917   93.1400   10.0217 O.2     1  UNL1       -0.1689
     24 O          66.0955   95.6054   11.7283 O.2     1  UNL1       -0.1689
     25 C          67.6187   95.1096    8.8673 C.3     1  UNL1        0.0276
     26 C          66.3485   95.2238    9.6570 C.3     1  UNL1        0.1556
@<TRIPOS>BOND
     1    25    26    1
     2    26    22    1
     3    22    23    2
     4    22    24    2
     5    22     1    1
     6     1     2    2
     7     2     3    1
     8     3     4    2
     9     4     5    1
    10     5     6    2
    11     6    10    1
    12    10    11   ar
    13    11    12   ar
    14    12    13   ar
    15    13    14   ar
    16    14    16    1
    17    16    17   ar
    18    17    18   ar
    19    18    19   ar
    20    19    20   ar
    21    20    21   ar
    22    14    15   ar
    23     6     7    1
    24     7     8    2
    25     8     9    1
    26     9     1    1
    27     8     4    1
    28    15    10   ar
    29    21    16   ar
@<TRIPOS>MOLECULE
*****
 26 29 0 0 0
SMALL
GASTEIGER

@<TRIPOS>ATOM
      1 C          66.8548   92.5426   14.1408 C.2     1  UNL1        0.0919
      2 C          66.7383   93.4250   12.9335 C.2     1  UNL1        0.0183
      3 C          65.7005   93.1351   11.8900 C.2     1  UNL1        0.0511
      4 C          64.7793   91.9628   12.0537 C.2     1  UNL1        0.2322
      5 N          63.6676   91.4325   11.1976 N.2     1  UNL1       -0.0308
      6 C          63.0971   90.2223   11.8758 C.2     1  UNL1        0.3752
      7 N          63.8561   90.0046   13.1511 N.2     1  UNL1       -0.0347
      8 C          64.8958   91.0803   13.2611 C.2     1  UNL1        0.2191
      9 C          65.9336   91.3702   14.3046 C.3     1  UNL1        0.1226
     10 C          61.9660   89.3781   11.3678 C.ar    1  UNL1        0.0884
     11 C          60.5873   89.5529   11.9323 C.ar    1  UNL1        0.0077
     12 C          59.4563   88.7087   11.4244 C.ar    1  UNL1        0.0003
     13 C          59.7039   87.6897   10.3520 C.ar    1  UNL1        0.0000
     14 C          61.0826   87.5148    9.7875 C.ar    1  UNL1        0.0002
     15 C          62.2136   88.3590   10.2954 C.ar    1  UNL1        0.0077
     16 C          61.3302   86.4957    8.7150 C.ar    1  UNL1        0.0000
     17 C          60.2280   86.1182    7.7702 C.ar    1  UNL1        0.0000
     18 C          60.4756   85.0991    6.6978 C.ar    1  UNL1        0.0000
     19 C          61.8254   84.4576    6.5701 C.ar    1  UNL1        0.0000
     20 C          62.9276   84.8350    7.5149 C.ar    1  UNL1        0.0000
     21 C          62.6800   85.8541    8.5873 C.ar    1  UNL1        0.0000
     22 S          67.8926   92.8325   15.1844 S.O2    1  UNL1        0.0054
     23 O          68.9748   92.6144   14.1688 O.2     1  UNL1       -0.1689
     24 O          66.8105   93.0505   16.2000 O.2     1  UNL1       -0.1689
     25 C          69.5556   94.4836   16.3061 C.3     1  UNL1        0.0276
     26 C          68.9304   93.1224   16.2279 C.3     1  UNL1        0.1556
@<TRIPOS>BOND
     1    25    26    1
     2    26    22    1
     3    22    23    2
     4    22    24    2
     5    22     1    1
     6     1     2    2
     7     2     3    1
     8     3     4    2
     9     4     5    1
    10     5     6    2
    11     6    10    1
    12    10    11   ar
    13    11    12   ar
    14    12    13   ar
    15    13    14   ar
    16    14    16    1
    17    16    17   ar
    18    17    18   ar
    19    18    19   ar
    20    19    20   ar
    21    20    21   ar
    22    14    15   ar
    23     6     7    1
    24     7     8    2
    25     8     9    1
    26     9     1    1
    27     8     4    1
    28    15    10   ar
    29    21    16   ar
@<TRIPOS>MOLECULE
*****
 26 29 0 0 0
SMALL
GASTEIGER

@<TRIPOS>ATOM
      1 C          65.8916   94.2515   11.3296 C.2     1  UNL1        0.0919
      2 C          66.1683   93.8240   12.7405 C.2     1  UNL1        0.0183
      3 C          65.5721   92.5534   13.2698 C.2     1  UNL1        0.0511
      4 C          64.6992   91.7103   12.3883 C.2     1  UNL1        0.2322
      5 N          63.9780   90.4177   12.6309 N.2     1  UNL1       -0.0308
      6 C          63.2555   90.0462   11.3699 C.2     1  UNL1        0.3752
      7 N          63.5302   91.1093   10.3480 N.2     1  UNL1       -0.0347
      8 C          64.4225   92.1378   10.9774 C.2     1  UNL1        0.2191
      9 C          65.0187   93.4084   10.4481 C.3     1  UNL1        0.1226
     10 C          62.4073   88.8258   11.1666 C.ar    1  UNL1        0.0884
     11 C          60.9914   88.9672   10.6919 C.ar    1  UNL1        0.0077
     12 C          60.1432   87.7469   10.4886 C.ar    1  UNL1        0.0003
     13 C          60.7109   86.3853   10.7600 C.ar    1  UNL1        0.0000
     14 C          62.1267   86.2439   11.2347 C.ar    1  UNL1        0.0002
     15 C          62.9749   87.4642   11.4380 C.ar    1  UNL1        0.0077
     16 C          62.6943   84.8822   11.5061 C.ar    1  UNL1        0.0000
     17 C          62.6764   84.3261   12.8991 C.ar    1  UNL1        0.0000
     18 C          63.2440   82.9645   13.1704 C.ar    1  UNL1        0.0000
     19 C          63.8296   82.1589   12.0488 C.ar    1  UNL1        0.0000
     20 C          63.8475   82.7149   10.6558 C.ar    1  UNL1        0.0000
     21 C          63.2799   84.0766   10.3844 C.ar    1  UNL1        0.0000
     22 S          66.4878   95.5220   10.8002 S.O2    1  UNL1        0.0054
     23 O          66.0865   96.2343   12.0578 O.2     1  UNL1       -0.1689
     24 O          66.8891   94.8097    9.5426 O.2     1  UNL1       -0.1689
     25 C          67.5809   96.8558    8.8570 C.3     1  UNL1        0.0276
     26 C          67.0840   96.7926   10.2708 C.3     1  UNL1        0.1556
@<TRIPOS>BOND
     1    25    26    1
     2    26    22    1
     3    22    23    2
     4    22    24    2
     5    22     1    1
     6     1     2    2
     7     2     3    1
     8     3     4    2
     9     4     5    1
    10     5     6    2
    11     6    10    1
    12    10    11   ar
    13    11    12   ar
    14    12    13   ar
    15    13    14   ar
    16    14    16    1
    17    16    17   ar
    18    17    18   ar
    19    18    19   ar
    20    19    20   ar
    21    20    21   ar
    22    14    15   ar
    23     6     7    1
    24     7     8    2
    25     8     9    1
    26     9     1    1
    27     8     4    1
    28    15    10   ar
    29    21    16   ar
@<TRIPOS>MOLECULE
*****
 26 29 0 0 0
SMALL
GASTEIGER

@<TRIPOS>ATOM
      1 C          63.4393   82.2420   12.3135 C.2     1  UNL1        0.0919
      2 C          63.7538   81.7622   13.6995 C.2     1  UNL1        0.0183
      3 C          63.9578   82.7523   14.8077 C.2     1  UNL1        0.0511
      4 C          63.8474   84.2222   14.5299 C.2     1  UNL1        0.2322
      5 N          63.9959   85.4247   15.4141 N.2     1  UNL1       -0.0308
      6 C          63.7733   86.6477   14.5746 C.2     1  UNL1        0.3752
      7 N          63.4871   86.2011   13.1716 N.2     1  UNL1       -0.0347
      8 C          63.5329   84.7020   13.1439 C.2     1  UNL1        0.2191
      9 C          63.3289   83.7118   12.0358 C.3     1  UNL1        0.1226
     10 C          63.8274   88.0681   15.0541 C.ar    1  UNL1        0.0884
     11 C          63.2850   88.4242   16.4065 C.ar    1  UNL1        0.0077
     12 C          63.3391   89.8445   16.8860 C.ar    1  UNL1        0.0003
     13 C          63.9354   90.9085   16.0130 C.ar    1  UNL1        0.0000
     14 C          64.4777   90.5524   14.6606 C.ar    1  UNL1        0.0002
     15 C          64.4237   89.1321   14.1811 C.ar    1  UNL1        0.0077
     16 C          65.0741   91.6166   13.7877 C.ar    1  UNL1        0.0000
     17 C          66.0312   92.6144   14.3692 C.ar    1  UNL1        0.0000
     18 C          66.6275   93.6785   13.4962 C.ar    1  UNL1        0.0000
     19 C          66.2666   93.7447   12.0418 C.ar    1  UNL1        0.0000
     20 C          65.3095   92.7469   11.4603 C.ar    1  UNL1        0.0000
     21 C          64.7133   91.6828   12.3332 C.ar    1  UNL1        0.0000
     22 S          63.2353   81.2519   11.2054 S.O2    1  UNL1        0.0054
     23 O          63.7387   82.2582   10.2135 O.2     1  UNL1       -0.1689
     24 O          62.7319   80.2455   12.1972 O.2     1  UNL1       -0.1689
     25 C          62.7775   78.8187   10.4181 C.3     1  UNL1        0.0276
     26 C          63.0313   80.2617   10.0972 C.3     1  UNL1        0.1556
@<TRIPOS>BOND
     1    25    26    1
     2    26    22    1
     3    22    23    2
     4    22    24    2
     5    22     1    1
     6     1     2    2
     7     2     3    1
     8     3     4    2
     9     4     5    1
    10     5     6    2
    11     6    10    1
    12    10    11   ar
    13    11    12   ar
    14    12    13   ar
    15    13    14   ar
    16    14    16    1
    17    16    17   ar
    18    17    18   ar
    19    18    19   ar
    20    19    20   ar
    21    20    21   ar
    22    14    15   ar
    23     6     7    1
    24     7     8    2
    25     8     9    1
    26     9     1    1
    27     8     4    1
    28    15    10   ar
    29    21    16   ar
@<TRIPOS>MOLECULE
*****
 26 29 0 0 0
SMALL
GASTEIGER

@<TRIPOS>ATOM
      1 C          62.7389   84.2731   13.3350 C.2     1  UNL1        0.0919
      2 C          62.1590   84.7676   12.0430 C.2     1  UNL1        0.0183
      3 C          62.3461   86.1992   11.6362 C.2     1  UNL1        0.0511
      4 C          63.1132   87.1363   12.5213 C.2     1  UNL1        0.2322
      5 N          63.4579   88.5897   12.3848 N.2     1  UNL1       -0.0308
      6 C          64.2509   88.9935   13.5923 C.2     1  UNL1        0.3752
      7 N          64.3962   87.7897   14.4752 N.2     1  UNL1       -0.0347
      8 C          63.6931   86.6418   13.8133 C.2     1  UNL1        0.2191
      9 C          63.5059   85.2102   14.2201 C.3     1  UNL1        0.1226
     10 C          64.8017   90.3612   13.8685 C.ar    1  UNL1        0.0884
     11 C          64.8736   90.8703   15.2776 C.ar    1  UNL1        0.0077
     12 C          65.4245   92.2378   15.5538 C.ar    1  UNL1        0.0003
     13 C          65.9034   93.0963   14.4208 C.ar    1  UNL1        0.0000
     14 C          65.8315   92.5872   13.0117 C.ar    1  UNL1        0.0002
     15 C          65.2807   91.2196   12.7355 C.ar    1  UNL1        0.0077
     16 C          66.3105   93.4457   11.8787 C.ar    1  UNL1        0.0000
     17 C          66.9470   92.8142   10.6763 C.ar    1  UNL1        0.0000
     18 C          67.4260   93.6727    9.5434 C.ar    1  UNL1        0.0000
     19 C          67.2684   95.1628    9.6130 C.ar    1  UNL1        0.0000
     20 C          66.6319   95.7943   10.8154 C.ar    1  UNL1        0.0000
     21 C          66.1530   94.9358   11.9483 C.ar    1  UNL1        0.0000
     22 S          62.5518   82.8415   13.7418 S.O2    1  UNL1        0.0054
     23 O          62.6862   83.2336   15.1834 O.2     1  UNL1       -0.1689
     24 O          62.4174   82.4494   12.3002 O.2     1  UNL1       -0.1689
     25 C          61.0064   80.7787   14.0681 C.3     1  UNL1        0.0276
     26 C          62.3647   81.4099   14.1486 C.3     1  UNL1        0.1556
@<TRIPOS>BOND
     1    25    26    1
     2    26    22    1
     3    22    23    2
     4    22    24    2
     5    22     1    1
     6     1     2    2
     7     2     3    1
     8     3     4    2
     9     4     5    1
    10     5     6    2
    11     6    10    1
    12    10    11   ar
    13    11    12   ar
    14    12    13   ar
    15    13    14   ar
    16    14    16    1
    17    16    17   ar
    18    17    18   ar
    19    18    19   ar
    20    19    20   ar
    21    20    21   ar
    22    14    15   ar
    23     6     7    1
    24     7     8    2
    25     8     9    1
    26     9     1    1
    27     8     4    1
    28    15    10   ar
    29    21    16   ar
@<TRIPOS>MOLECULE
*****
 26 29 0 0 0
SMALL
GASTEIGER

@<TRIPOS>ATOM
      1 C          61.1470   86.8255    8.6102 C.2     1  UNL1        0.0919
      2 C          60.3250   88.0662    8.4230 C.2     1  UNL1        0.0183
      3 C          60.4210   89.1864    9.4159 C.2     1  UNL1        0.0511
      4 C          61.3390   89.0660   10.5960 C.2     1  UNL1        0.2322
      5 N          61.6417   89.9984   11.7314 N.2     1  UNL1       -0.0308
      6 C          62.6509   89.3340   12.6203 C.2     1  UNL1        0.3752
      7 N          62.9718   87.9910   12.0343 N.2     1  UNL1       -0.0347
      8 C          62.1610   87.8254   10.7832 C.2     1  UNL1        0.2191
      9 C          62.0650   86.7052    9.7903 C.3     1  UNL1        0.1226
     10 C          63.2363   89.9113   13.8749 C.ar    1  UNL1        0.0884
     11 C          62.4810   89.8169   15.1675 C.ar    1  UNL1        0.0077
     12 C          63.0664   90.3941   16.4221 C.ar    1  UNL1        0.0003
     13 C          64.4071   91.0658   16.3842 C.ar    1  UNL1        0.0000
     14 C          65.1624   91.1601   15.0916 C.ar    1  UNL1        0.0002
     15 C          64.5770   90.5829   13.8370 C.ar    1  UNL1        0.0077
     16 C          66.5031   91.8318   15.0538 C.ar    1  UNL1        0.0000
     17 C          67.4444   91.5637   13.9171 C.ar    1  UNL1        0.0000
     18 C          68.7851   92.2354   13.8793 C.ar    1  UNL1        0.0000
     19 C          69.1844   93.1752   14.9781 C.ar    1  UNL1        0.0000
     20 C          68.2431   93.4433   16.1147 C.ar    1  UNL1        0.0000
     21 C          66.9024   92.7716   16.1526 C.ar    1  UNL1        0.0000
     22 S          61.0510   85.7053    7.6173 S.O2    1  UNL1        0.0054
     23 O          59.6020   86.0244    7.3973 O.2     1  UNL1       -0.1689
     24 O          62.5001   85.3862    7.8373 O.2     1  UNL1       -0.1689
     25 C          62.0814   84.3336    5.6662 C.3     1  UNL1        0.0276
     26 C          60.9551   84.5851    6.6244 C.3     1  UNL1        0.1556
@<TRIPOS>BOND
     1    25    26    1
     2    26    22    1
     3    22    23    2
     4    22    24    2
     5    22     1    1
     6     1     2    2
     7     2     3    1
     8     3     4    2
     9     4     5    1
    10     5     6    2
    11     6    10    1
    12    10    11   ar
    13    11    12   ar
    14    12    13   ar
    15    13    14   ar
    16    14    16    1
    17    16    17   ar
    18    17    18   ar
    19    18    19   ar
    20    19    20   ar
    21    20    21   ar
    22    14    15   ar
    23     6     7    1
    24     7     8    2
    25     8     9    1
    26     9     1    1
    27     8     4    1
    28    15    10   ar
    29    21    16   ar
@<TRIPOS>MOLECULE
*****
 26 29 0 0 0
SMALL
GASTEIGER

@<TRIPOS>ATOM
      1 C          66.1149   94.3848   10.9600 C.2     1  UNL1        0.0919
      2 C          66.3986   93.9078   12.3535 C.2     1  UNL1        0.0183
      3 C          65.6835   92.7055   12.8949 C.2     1  UNL1        0.0511
      4 C          64.6846   91.9802   12.0428 C.2     1  UNL1        0.2322
      5 N          63.8312   90.7744   12.3027 N.2     1  UNL1       -0.0308
      6 C          63.0200   90.5061   11.0699 C.2     1  UNL1        0.3752
      7 N          63.3720   91.5461   10.0479 N.2     1  UNL1       -0.0347
      8 C          64.4009   92.4571   10.6493 C.2     1  UNL1        0.2191
      9 C          65.1160   93.6594   10.1079 C.3     1  UNL1        0.1226
     10 C          62.0304   89.3931   10.8905 C.ar    1  UNL1        0.0884
     11 C          60.8449   89.2892   11.8036 C.ar    1  UNL1        0.0077
     12 C          59.8553   88.1763   11.6243 C.ar    1  UNL1        0.0003
     13 C          60.0512   87.1674   10.5318 C.ar    1  UNL1        0.0000
     14 C          61.2367   87.2713    9.6186 C.ar    1  UNL1        0.0002
     15 C          62.2262   88.3842    9.7979 C.ar    1  UNL1        0.0077
     16 C          61.4325   86.2623    8.5260 C.ar    1  UNL1        0.0000
     17 C          62.7677   85.6036    8.3440 C.ar    1  UNL1        0.0000
     18 C          62.9635   84.5947    7.2515 C.ar    1  UNL1        0.0000
     19 C          61.8241   84.2445    6.3409 C.ar    1  UNL1        0.0000
     20 C          60.4889   84.9033    6.5229 C.ar    1  UNL1        0.0000
     21 C          60.2931   85.9122    7.6154 C.ar    1  UNL1        0.0000
     22 S          66.8300   95.5870   10.4186 S.O2    1  UNL1        0.0054
     23 O          66.4657   96.3591   11.6520 O.2     1  UNL1       -0.1689
     24 O          67.1943   94.8150    9.1852 O.2     1  UNL1       -0.1689
     25 C          67.9068   96.8551    8.4230 C.3     1  UNL1        0.0276
     26 C          67.5451   96.7893    9.8772 C.3     1  UNL1        0.1556
@<TRIPOS>BOND
     1    25    26    1
     2    26    22    1
     3    22    23    2
     4    22    24    2
     5    22     1    1
     6     1     2    2
     7     2     3    1
     8     3     4    2
     9     4     5    1
    10     5     6    2
    11     6    10    1
    12    10    11   ar
    13    11    12   ar
    14    12    13   ar
    15    13    14   ar
    16    14    16    1
    17    16    17   ar
    18    17    18   ar
    19    18    19   ar
    20    19    20   ar
    21    20    21   ar
    22    14    15   ar
    23     6     7    1
    24     7     8    2
    25     8     9    1
    26     9     1    1
    27     8     4    1
    28    15    10   ar
    29    21    16   ar
@<TRIPOS>MOLECULE
*****
 26 29 0 0 0
SMALL
GASTEIGER

@<TRIPOS>ATOM
      1 C          66.5134   92.7105   14.3278 C.2     1  UNL1        0.0919
      2 C          66.1928   93.5278   13.1116 C.2     1  UNL1        0.0183
      3 C          65.2622   92.9856   12.0676 C.2     1  UNL1        0.0511
      4 C          64.6522   91.6262   12.2397 C.2     1  UNL1        0.2322
      5 N          63.7072   90.8345   11.3852 N.2     1  UNL1       -0.0308
      6 C          63.4438   89.5279   12.0733 C.2     1  UNL1        0.3752
      7 N          64.2259   89.5120   13.3531 N.2     1  UNL1       -0.0347
      8 C          64.9728   90.8089   13.4559 C.2     1  UNL1        0.2191
      9 C          65.9034   91.3511   14.5000 C.3     1  UNL1        0.1226
     10 C          62.5542   88.4300   11.5699 C.ar    1  UNL1        0.0884
     11 C          61.2185   88.7611   10.9731 C.ar    1  UNL1        0.0077
     12 C          60.3290   87.6633   10.4697 C.ar    1  UNL1        0.0003
     13 C          60.7752   86.2342   10.5631 C.ar    1  UNL1        0.0000
     14 C          62.1110   85.9031   11.1599 C.ar    1  UNL1        0.0002
     15 C          63.0005   87.0010   11.6633 C.ar    1  UNL1        0.0077
     16 C          62.5572   84.4740   11.2533 C.ar    1  UNL1        0.0000
     17 C          63.3800   83.8718   10.1533 C.ar    1  UNL1        0.0000
     18 C          63.8262   82.4428   10.2468 C.ar    1  UNL1        0.0000
     19 C          63.4495   81.6159   11.4403 C.ar    1  UNL1        0.0000
     20 C          62.6266   82.2182   12.5403 C.ar    1  UNL1        0.0000
     21 C          62.1804   83.6472   12.4469 C.ar    1  UNL1        0.0000
     22 S          67.4440   93.2527   15.3718 S.O2    1  UNL1        0.0054
     23 O          66.3562   93.1426   16.3987 O.2     1  UNL1       -0.1689
     24 O          68.5319   93.3628   14.3450 O.2     1  UNL1       -0.1689
     25 C          69.8411   93.9143   16.1242 C.3     1  UNL1        0.0276
     26 C          68.3746   93.7949   16.4159 C.3     1  UNL1        0.1556
@<TRIPOS>BOND
     1    25    26    1
     2    26    22    1
     3    22    23    2
     4    22    24    2
     5    22     1    1
     6     1     2    2
     7     2     3    1
     8     3     4    2
     9     4     5    1
    10     5     6    2
    11     6    10    1
    12    10    11   ar
    13    11    12   ar
    14    12    13   ar
    15    13    14   ar
    16    14    16    1
    17    16    17   ar
    18    17    18   ar
    19    18    19   ar
    20    19    20   ar
    21    20    21   ar
    22    14    15   ar
    23     6     7    1
    24     7     8    2
    25     8     9    1
    26     9     1    1
    27     8     4    1
    28    15    10   ar
    29    21    16   ar
@<TRIPOS>MOLECULE
*****
 26 29 0 0 0
SMALL
GASTEIGER

@<TRIPOS>ATOM
      1 C          62.9387   83.5905   12.3068 C.2     1  UNL1        0.0919
      2 C          62.4881   84.3786   11.1127 C.2     1  UNL1        0.0183
      3 C          62.5475   85.8773   11.1373 C.2     1  UNL1        0.0511
      4 C          63.0576   86.5878   12.3559 C.2     1  UNL1        0.2322
      5 N          63.2310   88.0443   12.6695 N.2     1  UNL1       -0.0308
      6 C          63.7888   88.1564   14.0574 C.2     1  UNL1        0.3752
      7 N          63.9601   86.7691   14.6016 N.2     1  UNL1       -0.0347
      8 C          63.5081   85.7997   13.5499 C.2     1  UNL1        0.2191
      9 C          63.4487   84.3010   13.5254 C.3     1  UNL1        0.1226
     10 C          64.1176   89.4319   14.7752 C.ar    1  UNL1        0.0884
     11 C          63.0951   90.0785   15.6620 C.ar    1  UNL1        0.0077
     12 C          63.4238   91.3539   16.3797 C.ar    1  UNL1        0.0003
     13 C          64.7751   91.9827   16.2106 C.ar    1  UNL1        0.0000
     14 C          65.7976   91.3362   15.3238 C.ar    1  UNL1        0.0002
     15 C          65.4689   90.0608   14.6061 C.ar    1  UNL1        0.0077
     16 C          67.1489   91.9651   15.1548 C.ar    1  UNL1        0.0000
     17 C          68.0032   91.6017   13.9766 C.ar    1  UNL1        0.0000
     18 C          69.3544   92.2307   13.8076 C.ar    1  UNL1        0.0000
     19 C          69.8513   93.2230   14.8167 C.ar    1  UNL1        0.0000
     20 C          68.9971   93.5863   15.9949 C.ar    1  UNL1        0.0000
     21 C          67.6458   92.9574   16.1639 C.ar    1  UNL1        0.0000
     22 S          62.8792   82.0919   12.2822 S.O2    1  UNL1        0.0054
     23 O          62.3266   82.0910   13.6767 O.2     1  UNL1       -0.1689
     24 O          63.4319   82.0928   10.8877 O.2     1  UNL1       -0.1689
     25 C          62.1738   79.8497   13.3889 C.3     1  UNL1        0.0276
     26 C          62.8198   80.5933   12.2577 C.3     1  UNL1        0.1556
@<TRIPOS>BOND
     1    25    26    1
     2    26    22    1
     3    22    23    2
     4    22    24    2
     5    22     1    1
     6     1     2    2
     7     2     3    1
     8     3     4    2
     9     4     5    1
    10     5     6    2
    11     6    10    1
    12    10    11   ar
    13    11    12   ar
    14    12    13   ar
    15    13    14   ar
    16    14    16    1
    17    16    17   ar
    18    17    18   ar
    19    18    19   ar
    20    19    20   ar
    21    20    21   ar
    22    14    15   ar
    23     6     7    1
    24     7     8    2
    25     8     9    1
    26     9     1    1
    27     8     4    1
    28    15    10   ar
    29    21    16   ar
