@<TRIPOS>MOLECULE
*****
 22 24 0 0 0
SMALL
GASTEIGER

@<TRIPOS>ATOM
      1 C          64.5193   89.9595   14.3760 C.ar    1  UNL1        0.0000
      2 C          63.8068   90.2870   13.0974 C.ar    1  UNL1       -0.0003
      3 C          64.2187   91.4856   12.2950 C.ar    1  UNL1       -0.0039
      4 C          65.3431   92.3567   12.7713 C.ar    1  UNL1       -0.0178
      5 C          66.0557   92.0291   14.0500 C.ar    1  UNL1       -0.0039
      6 C          65.6438   90.8306   14.8523 C.ar    1  UNL1       -0.0003
      7 N          64.5236   84.8149   15.1057 N.pl3   1  UNL1       -0.3570
      8 C          64.1096   86.1886   15.5432 C.ar    1  UNL1        0.0415
      9 C          63.2838   86.3638   16.7831 C.ar    1  UNL1        0.0141
     10 C          62.8698   87.7376   17.2206 C.ar    1  UNL1        0.0013
     11 C          63.2816   88.9361   16.4183 C.ar    1  UNL1        0.0001
     12 C          64.1074   88.7609   15.1784 C.ar    1  UNL1        0.0012
     13 C          64.5214   87.3872   14.7409 C.ar    1  UNL1        0.0141
     14 H          64.2533   84.0282   15.6324 H       1  UNL1        0.1424
     15 H          65.0656   84.6999   14.2920 H       1  UNL1        0.1424
     16 C          65.7550   93.5552   11.9689 C.3     1  UNL1        0.0527
     17 C          66.6443   93.3874   10.7727 C.ar    1  UNL1       -0.0147
     18 C          67.4987   92.1617   10.6394 C.ar    1  UNL1        0.0167
     19 C          68.3881   91.9939    9.4431 C.ar    1  UNL1        0.0986
     20 N          68.4229   93.0518    8.3802 N.ar    1  UNL1       -0.2423
     21 C          67.5685   94.2774    8.5136 C.ar    1  UNL1        0.0986
     22 C          66.6792   94.4452    9.7098 C.ar    1  UNL1        0.0167
@<TRIPOS>BOND
     1     7     8    1
     2     8     9   ar
     3     9    10   ar
     4    10    11   ar
     5    11    12   ar
     6    12     1    1
     7     1     2   ar
     8     2     3   ar
     9     3     4   ar
    10     4    16    1
    11    16    17    1
    12    17    18   ar
    13    18    19   ar
    14    19    20   ar
    15    20    21   ar
    16    21    22   ar
    17     4     5   ar
    18     5     6   ar
    19    12    13   ar
    20    13     8   ar
    21     6     1   ar
    22    22    17   ar
    23     7    14    1
    24     7    15    1
@<TRIPOS>MOLECULE
*****
 22 24 0 0 0
SMALL
GASTEIGER

@<TRIPOS>ATOM
      1 C          65.8118   92.1902   12.2792 C.ar    1  UNL1        0.0000
      2 C          66.4815   92.0078   13.6089 C.ar    1  UNL1       -0.0003
      3 C          65.7525   91.3259   14.7286 C.ar    1  UNL1       -0.0039
      4 C          64.3538   90.8265   14.5185 C.ar    1  UNL1       -0.0178
      5 C          63.6840   91.0090   13.1888 C.ar    1  UNL1       -0.0039
      6 C          64.4130   91.6908   12.0691 C.ar    1  UNL1       -0.0003
      7 N          66.6013   96.3891    9.3218 N.pl3   1  UNL1       -0.3570
      8 C          66.9355   94.9716    9.6808 C.ar    1  UNL1        0.0415
      9 C          67.9986   94.2359    8.9202 C.ar    1  UNL1        0.0141
     10 C          68.3328   92.8184    9.2793 C.ar    1  UNL1        0.0013
     11 C          67.6039   92.1365   10.3989 C.ar    1  UNL1        0.0001
     12 C          66.5408   92.8721   11.1595 C.ar    1  UNL1        0.0012
     13 C          66.2066   94.2897   10.8005 C.ar    1  UNL1        0.0141
     14 H          67.0797   96.8366    8.5869 H       1  UNL1        0.1424
     15 H          65.9035   96.8719    9.8210 H       1  UNL1        0.1424
     16 C          63.6248   90.1446   15.6382 C.3     1  UNL1        0.0527
     17 C          63.6775   88.6512   15.7677 C.ar    1  UNL1       -0.0147
     18 C          63.0290   87.9767   16.9401 C.ar    1  UNL1        0.0167
     19 C          63.0818   86.4832   17.0696 C.ar    1  UNL1        0.0986
     20 N          63.7830   85.6642   16.0268 N.ar    1  UNL1       -0.2423
     21 C          64.4315   86.3387   14.8544 C.ar    1  UNL1        0.0986
     22 C          64.3788   87.8322   14.7248 C.ar    1  UNL1        0.0167
@<TRIPOS>BOND
     1     7     8    1
     2     8     9   ar
     3     9    10   ar
     4    10    11   ar
     5    11    12   ar
     6    12     1    1
     7     1     2   ar
     8     2     3   ar
     9     3     4   ar
    10     4    16    1
    11    16    17    1
    12    17    18   ar
    13    18    19   ar
    14    19    20   ar
    15    20    21   ar
    16    21    22   ar
    17     4     5   ar
    18     5     6   ar
    19    12    13   ar
    20    13     8   ar
    21     6     1   ar
    22    22    17   ar
    23     7    14    1
    24     7    15    1
@<TRIPOS>MOLECULE
*****
 22 24 0 0 0
SMALL
GASTEIGER

@<TRIPOS>ATOM
      1 C          62.3223   88.0836   10.5221 C.ar    1  UNL1        0.0000
      2 C          62.2035   89.5687   10.3485 C.ar    1  UNL1       -0.0003
      3 C          62.6888   90.4912   11.4272 C.ar    1  UNL1       -0.0039
      4 C          63.2929   89.9285   12.6795 C.ar    1  UNL1       -0.0178
      5 C          63.4118   88.4433   12.8531 C.ar    1  UNL1       -0.0039
      6 C          62.9265   87.5209   11.7744 C.ar    1  UNL1       -0.0003
      7 N          58.5186   86.4234    7.3955 N.pl3   1  UNL1       -0.3570
      8 C          59.9352   86.3310    7.8801 C.ar    1  UNL1        0.0415
      9 C          60.8664   85.3163    7.2861 C.ar    1  UNL1        0.0141
     10 C          62.2830   85.2239    7.7707 C.ar    1  UNL1        0.0013
     11 C          62.7683   86.1463    8.8493 C.ar    1  UNL1        0.0001
     12 C          61.8370   87.1611    9.4434 C.ar    1  UNL1        0.0012
     13 C          60.4205   87.2535    8.9588 C.ar    1  UNL1        0.0141
     14 H          58.2001   85.8180    6.6875 H       1  UNL1        0.1424
     15 H          57.9074   87.0895    7.7854 H       1  UNL1        0.1424
     16 C          63.7782   90.8509   13.7582 C.3     1  UNL1        0.0527
     17 C          65.1394   91.4728   13.6569 C.ar    1  UNL1       -0.0147
     18 C          66.1711   91.1951   14.7098 C.ar    1  UNL1        0.0167
     19 C          67.5324   91.8171   14.6084 C.ar    1  UNL1        0.0986
     20 N          67.8619   92.7165   13.4542 N.ar    1  UNL1       -0.2423
     21 C          66.8303   92.9942   12.4013 C.ar    1  UNL1        0.0986
     22 C          65.4690   92.3723   12.5026 C.ar    1  UNL1        0.0167
@<TRIPOS>BOND
     1     7     8    1
     2     8     9   ar
     3     9    10   ar
     4    10    11   ar
     5    11    12   ar
     6    12     1    1
     7     1     2   ar
     8     2     3   ar
     9     3     4   ar
    10     4    16    1
    11    16    17    1
    12    17    18   ar
    13    18    19   ar
    14    19    20   ar
    15    20    21   ar
    16    21    22   ar
    17     4     5   ar
    18     5     6   ar
    19    12    13   ar
    20    13     8   ar
    21     6     1   ar
    22    22    17   ar
    23     7    14    1
    24     7    15    1
@<TRIPOS>MOLECULE
*****
 22 24 0 0 0
SMALL
GASTEIGER

@<TRIPOS>ATOM
      1 C          63.5131   86.1011   13.2409 C.ar    1  UNL1        0.0000
      2 C          64.1651   86.4628   14.5425 C.ar    1  UNL1       -0.0003
      3 C          64.3767   87.9041   14.9003 C.ar    1  UNL1       -0.0039
      4 C          63.9363   88.9836   13.9566 C.ar    1  UNL1       -0.0178
      5 C          63.2843   88.6218   12.6550 C.ar    1  UNL1       -0.0039
      6 C          63.0727   87.1806   12.2972 C.ar    1  UNL1       -0.0003
      7 N          62.1506   81.2775   14.6110 N.pl3   1  UNL1       -0.3570
      8 C          62.6203   82.2481   13.5681 C.ar    1  UNL1        0.0415
      9 C          62.8783   81.7774   12.1675 C.ar    1  UNL1        0.0141
     10 C          63.3480   82.7479   11.1247 C.ar    1  UNL1        0.0013
     11 C          63.5596   84.1891   11.4825 C.ar    1  UNL1        0.0001
     12 C          63.3015   84.6598   12.8831 C.ar    1  UNL1        0.0012
     13 C          62.8319   83.6893   13.9259 C.ar    1  UNL1        0.0141
     14 H          62.0118   80.3316   14.3761 H       1  UNL1        0.1424
     15 H          61.9813   81.5865   15.5303 H       1  UNL1        0.1424
     16 C          64.1479   90.4248   14.3144 C.3     1  UNL1        0.0527
     17 C          65.2448   91.2078   13.6559 C.ar    1  UNL1       -0.0147
     18 C          66.5897   91.3122   14.3119 C.ar    1  UNL1        0.0167
     19 C          67.6866   92.0952   13.6534 C.ar    1  UNL1        0.0986
     20 N          67.4387   92.7738   12.3388 N.ar    1  UNL1       -0.2423
     21 C          66.0938   92.6694   11.6828 C.ar    1  UNL1        0.0986
     22 C          64.9969   91.8864   12.3413 C.ar    1  UNL1        0.0167
@<TRIPOS>BOND
     1     7     8    1
     2     8     9   ar
     3     9    10   ar
     4    10    11   ar
     5    11    12   ar
     6    12     1    1
     7     1     2   ar
     8     2     3   ar
     9     3     4   ar
    10     4    16    1
    11    16    17    1
    12    17    18   ar
    13    18    19   ar
    14    19    20   ar
    15    20    21   ar
    16    21    22   ar
    17     4     5   ar
    18     5     6   ar
    19    12    13   ar
    20    13     8   ar
    21     6     1   ar
    22    22    17   ar
    23     7    14    1
    24     7    15    1
@<TRIPOS>MOLECULE
*****
 22 24 0 0 0
SMALL
GASTEIGER

@<TRIPOS>ATOM
      1 C          64.6211   91.3396   12.9705 C.ar    1  UNL1        0.0000
      2 C          63.5225   90.4342   13.4430 C.ar    1  UNL1       -0.0003
      3 C          62.4150   90.0475   12.5080 C.ar    1  UNL1       -0.0039
      4 C          62.4062   90.5663   11.1006 C.ar    1  UNL1       -0.0178
      5 C          63.5049   91.4717   10.6281 C.ar    1  UNL1       -0.0039
      6 C          64.6123   91.8583   11.5631 C.ar    1  UNL1       -0.0003
      7 N          69.6754   92.1408   13.8719 N.pl3   1  UNL1       -0.3570
      8 C          68.2557   92.1268   14.3561 C.ar    1  UNL1        0.0415
      9 C          67.9435   92.4995   15.7751 C.ar    1  UNL1        0.0141
     10 C          66.5239   92.4856   16.2592 C.ar    1  UNL1        0.0013
     11 C          65.4164   92.0989   15.3244 C.ar    1  UNL1        0.0001
     12 C          65.7286   91.7262   13.9054 C.ar    1  UNL1        0.0012
     13 C          67.1482   91.7402   13.4213 C.ar    1  UNL1        0.0141
     14 H          70.4022   92.3945   14.4855 H       1  UNL1        0.1424
     15 H          69.8802   91.8961   12.9406 H       1  UNL1        0.1424
     16 C          61.2988   90.1796   10.1657 C.3     1  UNL1        0.0527
     17 C          61.2494   88.7937    9.5941 C.ar    1  UNL1       -0.0147
     18 C          60.0869   88.3739    8.7442 C.ar    1  UNL1        0.0167
     19 C          60.0376   86.9880    8.1726 C.ar    1  UNL1        0.0986
     20 N          61.1507   86.0219    8.4508 N.ar    1  UNL1       -0.2423
     21 C          62.3133   86.4417    9.3007 C.ar    1  UNL1        0.0986
     22 C          62.3626   87.8275    9.8723 C.ar    1  UNL1        0.0167
@<TRIPOS>BOND
     1     7     8    1
     2     8     9   ar
     3     9    10   ar
     4    10    11   ar
     5    11    12   ar
     6    12     1    1
     7     1     2   ar
     8     2     3   ar
     9     3     4   ar
    10     4    16    1
    11    16    17    1
    12    17    18   ar
    13    18    19   ar
    14    19    20   ar
    15    20    21   ar
    16    21    22   ar
    17     4     5   ar
    18     5     6   ar
    19    12    13   ar
    20    13     8   ar
    21     6     1   ar
    22    22    17   ar
    23     7    14    1
    24     7    15    1
@<TRIPOS>MOLECULE
*****
 22 24 0 0 0
SMALL
GASTEIGER

@<TRIPOS>ATOM
      1 C          62.8727   88.9747   11.9577 C.ar    1  UNL1        0.0000
      2 C          63.5680   88.2606   13.0787 C.ar    1  UNL1       -0.0003
      3 C          64.2741   89.0455   14.1444 C.ar    1  UNL1       -0.0039
      4 C          64.2848   90.5445   14.0889 C.ar    1  UNL1       -0.0178
      5 C          63.5895   91.2585   12.9679 C.ar    1  UNL1       -0.0039
      6 C          62.8835   90.4736   11.9023 C.ar    1  UNL1       -0.0003
      7 N          59.7520   88.8186    7.8060 N.pl3   1  UNL1       -0.3570
      8 C          60.6063   88.1118    8.8162 C.ar    1  UNL1        0.0415
      9 C          60.7546   86.6202    8.7609 C.ar    1  UNL1        0.0141
     10 C          61.6089   85.9134    9.7712 C.ar    1  UNL1        0.0013
     11 C          62.3149   86.6982   10.8368 C.ar    1  UNL1        0.0001
     12 C          62.1667   88.1898   10.8921 C.ar    1  UNL1        0.0012
     13 C          61.3124   88.8966    9.8818 C.ar    1  UNL1        0.0141
     14 H          59.2886   88.3035    7.1066 H       1  UNL1        0.1424
     15 H          59.6547   89.7976    7.8423 H       1  UNL1        0.1424
     16 C          64.9908   91.3294   15.1545 C.3     1  UNL1        0.0527
     17 C          66.3957   91.8042   14.9296 C.ar    1  UNL1       -0.0147
     18 C          67.1286   92.5232   16.0232 C.ar    1  UNL1        0.0167
     19 C          68.5336   92.9981   15.7982 C.ar    1  UNL1        0.0986
     20 N          69.2057   92.7539   14.4796 N.ar    1  UNL1       -0.2423
     21 C          68.4728   92.0349   13.3860 C.ar    1  UNL1        0.0986
     22 C          67.0679   91.5600   13.6109 C.ar    1  UNL1        0.0167
@<TRIPOS>BOND
     1     7     8    1
     2     8     9   ar
     3     9    10   ar
     4    10    11   ar
     5    11    12   ar
     6    12     1    1
     7     1     2   ar
     8     2     3   ar
     9     3     4   ar
    10     4    16    1
    11    16    17    1
    12    17    18   ar
    13    18    19   ar
    14    19    20   ar
    15    20    21   ar
    16    21    22   ar
    17     4     5   ar
    18     5     6   ar
    19    12    13   ar
    20    13     8   ar
    21     6     1   ar
    22    22    17   ar
    23     7    14    1
    24     7    15    1
@<TRIPOS>MOLECULE
*****
 22 24 0 0 0
SMALL
GASTEIGER

@<TRIPOS>ATOM
      1 C          63.6981   90.6170   11.8955 C.ar    1  UNL1        0.0000
      2 C          62.9675   90.9393   10.6257 C.ar    1  UNL1       -0.0003
      3 C          61.9903   89.9561   10.0525 C.ar    1  UNL1       -0.0039
      4 C          61.7436   88.6508   10.7491 C.ar    1  UNL1       -0.0178
      5 C          62.4742   88.3286   12.0190 C.ar    1  UNL1       -0.0039
      6 C          63.4514   89.3117   12.5922 C.ar    1  UNL1       -0.0003
      7 N          66.7068   94.8168   11.3391 N.pl3   1  UNL1       -0.3570
      8 C          66.1797   93.7000   12.1906 C.ar    1  UNL1        0.0415
      9 C          66.6297   93.5663   13.6152 C.ar    1  UNL1        0.0141
     10 C          66.1025   92.4496   14.4666 C.ar    1  UNL1        0.0013
     11 C          65.1253   91.4665   13.8934 C.ar    1  UNL1        0.0001
     12 C          64.6753   91.6002   12.4688 C.ar    1  UNL1        0.0012
     13 C          65.2025   92.7169   11.6174 C.ar    1  UNL1        0.0141
     14 H          67.3482   95.4620   11.7153 H       1  UNL1        0.1424
     15 H          66.4115   94.9045   10.4041 H       1  UNL1        0.1424
     16 C          60.7665   87.6677   10.1759 C.3     1  UNL1        0.0527
     17 C          61.2066   86.7063    9.1120 C.ar    1  UNL1       -0.0147
     18 C          62.5874   86.1220    9.1539 C.ar    1  UNL1        0.0167
     19 C          63.0275   85.1605    8.0899 C.ar    1  UNL1        0.0986
     20 N          62.0868   84.7834    6.9841 N.ar    1  UNL1       -0.2423
     21 C          60.7059   85.3678    6.9423 C.ar    1  UNL1        0.0986
     22 C          60.2658   86.3292    8.0061 C.ar    1  UNL1        0.0167
@<TRIPOS>BOND
     1     7     8    1
     2     8     9   ar
     3     9    10   ar
     4    10    11   ar
     5    11    12   ar
     6    12     1    1
     7     1     2   ar
     8     2     3   ar
     9     3     4   ar
    10     4    16    1
    11    16    17    1
    12    17    18   ar
    13    18    19   ar
    14    19    20   ar
    15    20    21   ar
    16    21    22   ar
    17     4     5   ar
    18     5     6   ar
    19    12    13   ar
    20    13     8   ar
    21     6     1   ar
    22    22    17   ar
    23     7    14    1
    24     7    15    1
@<TRIPOS>MOLECULE
*****
 22 24 0 0 0
SMALL
GASTEIGER

@<TRIPOS>ATOM
      1 C          62.0224   88.4018   10.4960 C.ar    1  UNL1        0.0000
      2 C          62.7680   87.8153   11.6579 C.ar    1  UNL1       -0.0003
      3 C          63.3590   88.7161   12.7016 C.ar    1  UNL1       -0.0039
      4 C          63.2043   90.2034   12.5834 C.ar    1  UNL1       -0.0178
      5 C          62.4587   90.7899   11.4215 C.ar    1  UNL1       -0.0039
      6 C          61.8677   89.8891   10.3778 C.ar    1  UNL1       -0.0003
      7 N          62.5762   84.6049    6.9921 N.pl3   1  UNL1       -0.3570
      8 C          61.7083   85.6026    7.7003 C.ar    1  UNL1        0.0415
      9 C          60.2496   85.6995    7.3648 C.ar    1  UNL1        0.0141
     10 C          59.3817   86.6971    8.0730 C.ar    1  UNL1        0.0013
     11 C          59.9727   87.5979    9.1167 C.ar    1  UNL1        0.0001
     12 C          61.4314   87.5010    9.4522 C.ar    1  UNL1        0.0012
     13 C          62.2992   86.5034    8.7440 C.ar    1  UNL1        0.0141
     14 H          62.1883   84.0137    6.3071 H       1  UNL1        0.1424
     15 H          63.5336   84.5413    7.2124 H       1  UNL1        0.1424
     16 C          63.7953   91.1042   13.6271 C.3     1  UNL1        0.0527
     17 C          65.2274   91.5371   13.5204 C.ar    1  UNL1       -0.0147
     18 C          66.1776   91.2708   14.6502 C.ar    1  UNL1        0.0167
     19 C          67.6098   91.7037   14.5434 C.ar    1  UNL1        0.0986
     20 N          68.0919   92.4028   13.3070 N.ar    1  UNL1       -0.2423
     21 C          67.1417   92.6691   12.1773 C.ar    1  UNL1        0.0986
     22 C          65.7096   92.2362   12.2840 C.ar    1  UNL1        0.0167
@<TRIPOS>BOND
     1     7     8    1
     2     8     9   ar
     3     9    10   ar
     4    10    11   ar
     5    11    12   ar
     6    12     1    1
     7     1     2   ar
     8     2     3   ar
     9     3     4   ar
    10     4    16    1
    11    16    17    1
    12    17    18   ar
    13    18    19   ar
    14    19    20   ar
    15    20    21   ar
    16    21    22   ar
    17     4     5   ar
    18     5     6   ar
    19    12    13   ar
    20    13     8   ar
    21     6     1   ar
    22    22    17   ar
    23     7    14    1
    24     7    15    1
@<TRIPOS>MOLECULE
*****
 22 24 0 0 0
SMALL
GASTEIGER

@<TRIPOS>ATOM
      1 C          63.7094   90.6742   11.9901 C.ar    1  UNL1        0.0000
      2 C          62.9447   90.9632   10.7325 C.ar    1  UNL1       -0.0003
      3 C          61.9797   89.9499   10.1919 C.ar    1  UNL1       -0.0039
      4 C          61.7796   88.6477   10.9090 C.ar    1  UNL1       -0.0178
      5 C          62.5443   88.3588   12.1667 C.ar    1  UNL1       -0.0039
      6 C          63.5093   89.3720   12.7072 C.ar    1  UNL1       -0.0003
      7 N          66.3476   92.6914   15.9865 N.pl3   1  UNL1       -0.3570
      8 C          65.9935   92.6961   14.5289 C.ar    1  UNL1        0.0415
      9 C          66.6043   93.7139   13.6120 C.ar    1  UNL1        0.0141
     10 C          66.2501   93.7185   12.1544 C.ar    1  UNL1        0.0013
     11 C          65.2852   92.7053   11.6137 C.ar    1  UNL1        0.0001
     12 C          64.6744   91.6875   12.5307 C.ar    1  UNL1        0.0012
     13 C          65.0285   91.6829   13.9883 C.ar    1  UNL1        0.0141
     14 H          66.9809   93.3564   16.3413 H       1  UNL1        0.1424
     15 H          65.9467   92.0234   16.5884 H       1  UNL1        0.1424
     16 C          60.8146   87.6345   10.3684 C.3     1  UNL1        0.0527
     17 C          61.2340   86.7172    9.2581 C.ar    1  UNL1       -0.0147
     18 C          60.2631   86.3628    8.1710 C.ar    1  UNL1        0.0167
     19 C          60.6825   85.4455    7.0607 C.ar    1  UNL1        0.0986
     20 N          62.0727   84.8827    7.0375 N.ar    1  UNL1       -0.2423
     21 C          63.0436   85.2372    8.1246 C.ar    1  UNL1        0.0986
     22 C          62.6243   86.1544    9.2349 C.ar    1  UNL1        0.0167
@<TRIPOS>BOND
     1     7     8    1
     2     8     9   ar
     3     9    10   ar
     4    10    11   ar
     5    11    12   ar
     6    12     1    1
     7     1     2   ar
     8     2     3   ar
     9     3     4   ar
    10     4    16    1
    11    16    17    1
    12    17    18   ar
    13    18    19   ar
    14    19    20   ar
    15    20    21   ar
    16    21    22   ar
    17     4     5   ar
    18     5     6   ar
    19    12    13   ar
    20    13     8   ar
    21     6     1   ar
    22    22    17   ar
    23     7    14    1
    24     7    15    1
