@<TRIPOS>MOLECULE
*****
 34 37 0 0 0
SMALL
GASTEIGER

@<TRIPOS>ATOM
      1 C          59.5375   90.1868    6.1417 C.ar    1  UNL1        0.2601
      2 N          60.5780   90.6627    5.1716 N.ar    1  UNL1       -0.1870
      3 C          59.9372   91.6671    4.2603 C.ar    1  UNL1        0.2036
      4 N          58.5007   91.8120    4.6671 N.ar    1  UNL1       -0.0556
      5 O          58.2536   90.8972    5.8299 O.2     1  UNL1       -0.3324
      6 C          60.6141   92.3983    3.1390 C.ar    1  UNL1        0.0389
      7 C          59.8088   93.2575    2.2098 C.ar    1  UNL1        0.0044
      8 C          60.4857   93.9886    1.0886 C.ar    1  UNL1        0.0147
      9 C          61.9678   93.8606    0.8965 C.ar    1  UNL1        0.0499
     10 C          62.7731   93.0014    1.8256 C.ar    1  UNL1       -0.0067
     11 C          62.0962   92.2703    2.9469 C.ar    1  UNL1        0.0002
     12 C          64.2074   93.0671    1.3916 C.3     1  UNL1        0.0495
     13 C          64.2886   93.9669    0.1941 C.3     1  UNL1        0.1029
     14 N          62.9045   94.4573   -0.1119 N.am    1  UNL1       -0.2586
     15 C          62.5238   95.3820   -1.2299 C.2     1  UNL1        0.2297
     16 O          61.0913   95.7875   -1.4130 O.2     1  UNL1       -0.2745
     17 C          63.5756   95.9012   -2.1648 C.3     1  UNL1        0.0915
     18 C          64.1050   95.0237   -3.2600 C.3     1  UNL1        0.0513
     19 C          63.2955   93.8572   -3.7438 C.2     1  UNL1        0.0508
     20 O          61.9812   94.0888   -4.4287 O.co2   1  UNL1       -0.5492
     21 O          63.8003   92.4591   -3.5427 O.co2   1  UNL1       -0.5492
     22 C          59.9537   88.6052    9.7576 C.ar    1  UNL1        0.0716
     23 C          60.1586   87.1597    9.4128 C.ar    1  UNL1        0.0475
     24 C          60.1564   86.7233    7.9778 C.ar    1  UNL1        0.1476
     25 C          59.9494   87.7324    6.8874 C.ar    1  UNL1        0.0420
     26 C          59.7445   89.1778    7.2321 C.ar    1  UNL1        0.0598
     27 C          59.7467   89.6141    8.6672 C.ar    1  UNL1        0.0152
     28 N          59.9580   89.4779   12.6279 N.1     1  UNL1       -0.1908
     29 C          59.9558   89.0415   11.1927 C.1     1  UNL1        0.1005
     30 O          60.3613   85.2779    7.6331 O.3     1  UNL1       -0.4044
     31 C          61.5798   84.8549    6.8675 C.3     1  UNL1        0.5753
     32 F          62.7984   84.4319    6.1018 F       1  UNL1       -0.1328
     33 F          60.7147   84.0784    5.9196 F       1  UNL1       -0.1328
     34 F          62.4450   85.6314    7.8153 F       1  UNL1       -0.1328
@<TRIPOS>UNITY_ATOM_ATTR
20 1
charge -1
@<TRIPOS>BOND
     1    28    29    3
     2    29    22    1
     3    22    23   ar
     4    23    24   ar
     5    24    30    1
     6    30    31    1
     7    31    32    1
     8    31    33    1
     9    31    34    1
    10    24    25   ar
    11    25    26   ar
    12    26     1    1
    13     1     2   ar
    14     2     3   ar
    15     3     6    1
    16     6     7   ar
    17     7     8   ar
    18     8     9   ar
    19     9    10   ar
    20    10    11   ar
    21    10    12    1
    22    12    13    1
    23    13    14    1
    24    14    15   am
    25    15    16    2
    26    15    17    1
    27    17    18    1
    28    18    19    1
    29    19    20   ar
    30    19    21   ar
    31     3     4   ar
    32     4     5   ar
    33    26    27   ar
    34    27    22   ar
    35     5     1   ar
    36    11     6   ar
    37    14     9    1
@<TRIPOS>MOLECULE
*****
 34 37 0 0 0
SMALL
GASTEIGER

@<TRIPOS>ATOM
      1 C          63.4824   86.1616   14.2147 C.ar    1  UNL1        0.2601
      2 N          63.9343   87.3109   13.3633 N.ar    1  UNL1       -0.1870
      3 C          64.1173   88.5038   14.2541 C.ar    1  UNL1        0.2036
      4 N          63.7784   88.0917   15.6561 N.ar    1  UNL1       -0.0556
      5 O          63.3861   86.6442   15.6318 O.2     1  UNL1       -0.3324
      6 C          64.5611   89.8691   13.8193 C.ar    1  UNL1        0.0389
      7 C          64.1273   90.4106   12.4895 C.ar    1  UNL1        0.0044
      8 C          64.5712   91.7759   12.0548 C.ar    1  UNL1        0.0147
      9 C          65.4489   92.5996   12.9499 C.ar    1  UNL1        0.0499
     10 C          65.8827   92.0580   14.2797 C.ar    1  UNL1       -0.0067
     11 C          65.4388   90.6928   14.7144 C.ar    1  UNL1        0.0002
     12 C          66.7423   93.0927   14.9434 C.3     1  UNL1        0.0495
     13 C          66.8399   94.2737   14.0237 C.3     1  UNL1        0.1029
     14 N          66.0405   93.9690   12.7917 N.am    1  UNL1       -0.2586
     15 C          65.8637   94.8745   11.6090 C.2     1  UNL1        0.2297
     16 O          65.0307   94.4313   10.4429 O.2     1  UNL1       -0.2745
     17 C          66.5198   96.2233   11.5925 C.3     1  UNL1        0.0915
     18 C          67.0929   96.7630   10.3157 C.3     1  UNL1        0.0513
     19 C          67.4488   95.8272    9.1987 C.2     1  UNL1        0.0508
     20 O          68.3757   94.6754    9.4519 O.co2   1  UNL1       -0.5492
     21 O          66.8778   96.0433    7.8286 O.co2   1  UNL1       -0.5492
     22 C          63.4804   82.8871   11.9725 C.ar    1  UNL1        0.0716
     23 C          62.5750   81.9971   12.7714 C.ar    1  UNL1        0.0475
     24 C          61.9722   82.4952   14.0513 C.ar    1  UNL1        0.1476
     25 C          62.2746   83.8834   14.5325 C.ar    1  UNL1        0.0420
     26 C          63.1799   84.7734   13.7336 C.ar    1  UNL1        0.0598
     27 C          63.7828   84.2752   12.4536 C.ar    1  UNL1        0.0152
     28 N          64.6861   81.8908    9.4125 N.1     1  UNL1       -0.1908
     29 C          64.0833   82.3889   10.6925 C.1     1  UNL1        0.1005
     30 O          61.0668   81.6051   14.8502 O.3     1  UNL1       -0.4044
     31 C          60.5928   80.3046   14.2723 C.3     1  UNL1        0.5753
     32 F          60.1188   79.0040   13.6944 F       1  UNL1       -0.1328
     33 F          59.1876   80.8286   14.2457 F       1  UNL1       -0.1328
     34 F          61.9980   79.7806   14.2989 F       1  UNL1       -0.1328
@<TRIPOS>UNITY_ATOM_ATTR
20 1
charge -1
@<TRIPOS>BOND
     1    28    29    3
     2    29    22    1
     3    22    23   ar
     4    23    24   ar
     5    24    30    1
     6    30    31    1
     7    31    32    1
     8    31    33    1
     9    31    34    1
    10    24    25   ar
    11    25    26   ar
    12    26     1    1
    13     1     2   ar
    14     2     3   ar
    15     3     6    1
    16     6     7   ar
    17     7     8   ar
    18     8     9   ar
    19     9    10   ar
    20    10    11   ar
    21    10    12    1
    22    12    13    1
    23    13    14    1
    24    14    15   am
    25    15    16    2
    26    15    17    1
    27    17    18    1
    28    18    19    1
    29    19    20   ar
    30    19    21   ar
    31     3     4   ar
    32     4     5   ar
    33    26    27   ar
    34    27    22   ar
    35     5     1   ar
    36    11     6   ar
    37    14     9    1
@<TRIPOS>MOLECULE
*****
 34 37 0 0 0
SMALL
GASTEIGER

@<TRIPOS>ATOM
      1 C          62.9111   84.4762   14.3600 C.ar    1  UNL1        0.2601
      2 N          63.2530   85.6440   13.4828 N.ar    1  UNL1       -0.1870
      3 C          63.5961   86.8046   14.3689 C.ar    1  UNL1        0.2036
      4 N          63.4662   86.3542   15.7938 N.ar    1  UNL1       -0.0556
      5 O          63.0429   84.9152   15.7883 O.2     1  UNL1       -0.3324
      6 C          63.9983   88.1751   13.9107 C.ar    1  UNL1        0.0389
      7 C          64.9259   89.0040   14.7488 C.ar    1  UNL1        0.0044
      8 C          65.3281   90.3744   14.2905 C.ar    1  UNL1        0.0147
      9 C          64.8028   90.9160   12.9941 C.ar    1  UNL1        0.0499
     10 C          63.8753   90.0871   12.1559 C.ar    1  UNL1       -0.0067
     11 C          63.4730   88.7167   12.6142 C.ar    1  UNL1        0.0002
     12 C          63.5211   90.8809   10.9334 C.3     1  UNL1        0.0495
     13 C          64.2298   92.2003   11.0161 C.3     1  UNL1        0.1029
     14 N          65.0219   92.2221   12.2896 N.am    1  UNL1       -0.2586
     15 C          65.8821   93.3515   12.7737 C.2     1  UNL1        0.2297
     16 O          66.6190   93.2288   14.0745 O.2     1  UNL1       -0.2745
     17 C          66.0055   94.6036   11.9571 C.3     1  UNL1        0.0915
     18 C          66.1083   94.5176   10.4631 C.3     1  UNL1        0.0513
     19 C          67.3561   94.9778    9.7694 C.2     1  UNL1        0.0508
     20 O          68.5513   94.0743    9.6981 O.co2   1  UNL1       -0.5492
     21 O          67.4086   96.3416    9.1469 O.co2   1  UNL1       -0.5492
     22 C          60.8901   81.0798   14.0002 C.ar    1  UNL1        0.0716
     23 C          61.7025   80.3761   12.9537 C.ar    1  UNL1        0.0475
     24 C          62.9176   81.0391   12.3761 C.ar    1  UNL1        0.1476
     25 C          63.3205   82.4058   12.8448 C.ar    1  UNL1        0.0420
     26 C          62.5082   83.1095   13.8912 C.ar    1  UNL1        0.0598
     27 C          61.2930   82.4465   14.4688 C.ar    1  UNL1        0.0152
     28 N          58.4597   79.7537   15.1554 N.1     1  UNL1       -0.1908
     29 C          59.6749   80.4168   14.5778 C.1     1  UNL1        0.1005
     30 O          63.7299   80.3354   11.3297 O.3     1  UNL1       -0.4044
     31 C          63.0631   79.7988   10.0978 C.3     1  UNL1        0.5753
     32 F          62.3963   79.2623    8.8659 F       1  UNL1       -0.1328
     33 F          63.0722   81.1722    9.4947 F       1  UNL1       -0.1328
     34 F          63.0540   78.4255   10.7009 F       1  UNL1       -0.1328
@<TRIPOS>UNITY_ATOM_ATTR
20 1
charge -1
@<TRIPOS>BOND
     1    28    29    3
     2    29    22    1
     3    22    23   ar
     4    23    24   ar
     5    24    30    1
     6    30    31    1
     7    31    32    1
     8    31    33    1
     9    31    34    1
    10    24    25   ar
    11    25    26   ar
    12    26     1    1
    13     1     2   ar
    14     2     3   ar
    15     3     6    1
    16     6     7   ar
    17     7     8   ar
    18     8     9   ar
    19     9    10   ar
    20    10    11   ar
    21    10    12    1
    22    12    13    1
    23    13    14    1
    24    14    15   am
    25    15    16    2
    26    15    17    1
    27    17    18    1
    28    18    19    1
    29    19    20   ar
    30    19    21   ar
    31     3     4   ar
    32     4     5   ar
    33    26    27   ar
    34    27    22   ar
    35     5     1   ar
    36    11     6   ar
    37    14     9    1
@<TRIPOS>MOLECULE
*****
 34 37 0 0 0
SMALL
GASTEIGER

@<TRIPOS>ATOM
      1 C          59.4958   90.1811    6.1131 C.ar    1  UNL1        0.2601
      2 N          60.5226   90.6715    5.1358 N.ar    1  UNL1       -0.1870
      3 C          59.8635   91.6728    4.2343 C.ar    1  UNL1        0.2036
      4 N          58.4293   91.8013    4.6543 N.ar    1  UNL1       -0.0556
      5 O          58.2019   90.8793    5.8155 O.2     1  UNL1       -0.3324
      6 C          60.5229   92.4153    3.1100 C.ar    1  UNL1        0.0389
      7 C          62.0063   92.3135    2.9120 C.ar    1  UNL1        0.0044
      8 C          62.6655   93.0561    1.7878 C.ar    1  UNL1        0.0147
      9 C          61.8415   93.9004    0.8615 C.ar    1  UNL1        0.0499
     10 C          60.3581   94.0022    1.0595 C.ar    1  UNL1       -0.0067
     11 C          59.6988   93.2597    2.1837 C.ar    1  UNL1        0.0002
     12 C          59.8093   94.9050   -0.0053 C.3     1  UNL1        0.0495
     13 C          60.9535   95.3612   -0.8613 C.3     1  UNL1        0.1029
     14 N          62.2095   94.7403   -0.3256 N.am    1  UNL1       -0.2586
     15 C          63.5909   94.9266   -0.8797 C.2     1  UNL1        0.2297
     16 O          64.7569   94.2379   -0.2347 O.2     1  UNL1       -0.2745
     17 C          63.8062   95.8016   -2.0789 C.3     1  UNL1        0.0915
     18 C          64.4686   95.2451   -3.3042 C.3     1  UNL1        0.0513
     19 C          64.9379   96.1693   -4.3884 C.2     1  UNL1        0.0508
     20 O          64.0787   96.4078   -5.5946 O.co2   1  UNL1       -0.5492
     21 O          66.2664   96.8549   -4.2665 O.co2   1  UNL1       -0.5492
     22 C          59.9725   88.5915    9.7181 C.ar    1  UNL1        0.0716
     23 C          60.1768   87.1477    9.3664 C.ar    1  UNL1        0.0475
     24 C          60.1542   86.7149    7.9304 C.ar    1  UNL1        0.1476
     25 C          59.9271   87.7261    6.8460 C.ar    1  UNL1        0.0420
     26 C          59.7228   89.1699    7.1976 C.ar    1  UNL1        0.0598
     27 C          59.7455   89.6026    8.6336 C.ar    1  UNL1        0.0152
     28 N          60.0179   89.4568   12.5902 N.1     1  UNL1       -0.1908
     29 C          59.9952   89.0242   11.1541 C.1     1  UNL1        0.1005
     30 O          60.3585   85.2711    7.5789 O.3     1  UNL1       -0.4044
     31 C          61.5863   84.8486    6.8280 C.3     1  UNL1        0.5753
     32 F          62.8143   84.4261    6.0770 F       1  UNL1       -0.1328
     33 F          62.4386   85.6361    7.7785 F       1  UNL1       -0.1328
     34 F          60.7342   84.0611    5.8774 F       1  UNL1       -0.1328
@<TRIPOS>UNITY_ATOM_ATTR
20 1
charge -1
@<TRIPOS>BOND
     1    28    29    3
     2    29    22    1
     3    22    23   ar
     4    23    24   ar
     5    24    30    1
     6    30    31    1
     7    31    32    1
     8    31    33    1
     9    31    34    1
    10    24    25   ar
    11    25    26   ar
    12    26     1    1
    13     1     2   ar
    14     2     3   ar
    15     3     6    1
    16     6     7   ar
    17     7     8   ar
    18     8     9   ar
    19     9    10   ar
    20    10    11   ar
    21    10    12    1
    22    12    13    1
    23    13    14    1
    24    14    15   am
    25    15    16    2
    26    15    17    1
    27    17    18    1
    28    18    19    1
    29    19    20   ar
    30    19    21   ar
    31     3     4   ar
    32     4     5   ar
    33    26    27   ar
    34    27    22   ar
    35     5     1   ar
    36    11     6   ar
    37    14     9    1
@<TRIPOS>MOLECULE
*****
 34 37 0 0 0
SMALL
GASTEIGER

@<TRIPOS>ATOM
      1 C          64.0253   91.1094   12.2340 C.ar    1  UNL1        0.2601
      2 N          64.4429   89.7047   12.5536 N.ar    1  UNL1       -0.1870
      3 C          63.2653   88.8060   12.3180 C.ar    1  UNL1        0.2036
      4 N          62.1198   89.6554   11.8527 N.ar    1  UNL1       -0.0556
      5 O          62.5895   91.0790   11.8008 O.2     1  UNL1       -0.3324
      6 C          63.2378   87.3190   12.5133 C.ar    1  UNL1        0.0389
      7 C          62.6568   86.4336   11.4510 C.ar    1  UNL1        0.0044
      8 C          62.6294   84.9467   11.6463 C.ar    1  UNL1        0.0147
      9 C          63.1830   84.3451   12.9040 C.ar    1  UNL1        0.0499
     10 C          63.7640   85.2305   13.9663 C.ar    1  UNL1       -0.0067
     11 C          63.7914   86.7174   13.7709 C.ar    1  UNL1        0.0002
     12 C          64.2324   84.3573   15.0923 C.3     1  UNL1        0.0495
     13 C          63.9409   82.9322   14.7260 C.3     1  UNL1        0.1029
     14 N          63.2923   82.9246   13.3735 N.am    1  UNL1       -0.2586
     15 C          62.8336   81.7100   12.6224 C.2     1  UNL1        0.2297
     16 O          62.1986   81.8589   11.2716 O.2     1  UNL1       -0.2745
     17 C          63.0099   80.3464   13.2221 C.3     1  UNL1        0.0915
     18 C          61.8168   79.5864   13.7208 C.3     1  UNL1        0.0513
     19 C          60.6051   80.3260   14.2052 C.2     1  UNL1        0.0508
     20 O          60.7177   81.7657   14.6110 O.co2   1  UNL1       -0.5492
     21 O          59.2808   79.6261   14.2836 O.co2   1  UNL1       -0.5492
     22 C          65.8697   94.4855   11.2591 C.ar    1  UNL1        0.0716
     23 C          66.6236   94.7720   12.5238 C.ar    1  UNL1        0.0475
     24 C          66.5115   93.8378   13.6919 C.ar    1  UNL1        0.1476
     25 C          65.6454   92.6169   13.5953 C.ar    1  UNL1        0.0420
     26 C          64.8914   92.3303   12.3306 C.ar    1  UNL1        0.0598
     27 C          65.0036   93.2647   11.1625 C.ar    1  UNL1        0.0152
     28 N          66.0941   96.3542    8.9229 N.1     1  UNL1       -0.1908
     29 C          65.9819   95.4198   10.0910 C.1     1  UNL1        0.1005
     30 O          67.2654   94.1243   14.9566 O.3     1  UNL1       -0.4044
     31 C          67.8139   92.9935   15.7753 C.3     1  UNL1        0.5753
     32 F          68.3625   91.8626   16.5941 F       1  UNL1       -0.1328
     33 F          66.5557   92.9742   16.5917 F       1  UNL1       -0.1328
     34 F          69.0722   93.0128   14.9591 F       1  UNL1       -0.1328
@<TRIPOS>UNITY_ATOM_ATTR
20 1
charge -1
@<TRIPOS>BOND
     1    28    29    3
     2    29    22    1
     3    22    23   ar
     4    23    24   ar
     5    24    30    1
     6    30    31    1
     7    31    32    1
     8    31    33    1
     9    31    34    1
    10    24    25   ar
    11    25    26   ar
    12    26     1    1
    13     1     2   ar
    14     2     3   ar
    15     3     6    1
    16     6     7   ar
    17     7     8   ar
    18     8     9   ar
    19     9    10   ar
    20    10    11   ar
    21    10    12    1
    22    12    13    1
    23    13    14    1
    24    14    15   am
    25    15    16    2
    26    15    17    1
    27    17    18    1
    28    18    19    1
    29    19    20   ar
    30    19    21   ar
    31     3     4   ar
    32     4     5   ar
    33    26    27   ar
    34    27    22   ar
    35     5     1   ar
    36    11     6   ar
    37    14     9    1
@<TRIPOS>MOLECULE
*****
 34 37 0 0 0
SMALL
GASTEIGER

@<TRIPOS>ATOM
      1 C          64.6660   90.0690   14.6122 C.ar    1  UNL1        0.2601
      2 N          64.6139   88.7858   13.8372 N.ar    1  UNL1       -0.1870
      3 C          63.8288   87.7911   14.6397 C.ar    1  UNL1        0.2036
      4 N          63.3956   88.4595   15.9108 N.ar    1  UNL1       -0.0556
      5 O          63.9130   89.8674   15.8938 O.2     1  UNL1       -0.3324
      6 C          63.5294   86.3762   14.2413 C.ar    1  UNL1        0.0389
      7 C          63.2619   85.3413   15.2935 C.ar    1  UNL1        0.0044
      8 C          62.9625   83.9266   14.8950 C.ar    1  UNL1        0.0147
      9 C          62.9307   83.5468   13.4442 C.ar    1  UNL1        0.0499
     10 C          63.1982   84.5817   12.3920 C.ar    1  UNL1       -0.0067
     11 C          63.4976   85.9964   12.7905 C.ar    1  UNL1        0.0002
     12 C          63.0991   83.9161   11.0514 C.3     1  UNL1        0.0495
     13 C          62.7702   82.4698   11.2752 C.3     1  UNL1        0.1029
     14 N          62.6662   82.2415   12.7540 N.am    1  UNL1       -0.2586
     15 C          62.3526   80.9370   13.4249 C.2     1  UNL1        0.2297
     16 O          62.2818   80.8612   14.9213 O.2     1  UNL1       -0.2745
     17 C          62.1100   79.7084   12.5993 C.3     1  UNL1        0.0915
     18 C          63.1591   79.2302   11.6398 C.3     1  UNL1        0.0513
     19 C          62.7578   78.5004   10.3923 C.2     1  UNL1        0.0508
     20 O          62.7872   77.0011   10.3582 O.co2   1  UNL1       -0.5492
     21 O          62.3272   79.2699    9.1789 O.co2   1  UNL1       -0.5492
     22 C          67.0307   93.2558   14.6577 C.ar    1  UNL1        0.0716
     23 C          66.7202   93.8583   13.3195 C.ar    1  UNL1        0.0475
     24 C          65.7251   93.1977   12.4122 C.ar    1  UNL1        0.1476
     25 C          65.0403   91.9346   12.8431 C.ar    1  UNL1        0.0420
     26 C          65.3507   91.3321   14.1813 C.ar    1  UNL1        0.0598
     27 C          66.3460   91.9927   15.0885 C.ar    1  UNL1        0.0152
     28 N          69.0212   94.5771   16.4722 N.1     1  UNL1       -0.1908
     29 C          68.0259   93.9164   15.5649 C.1     1  UNL1        0.1005
     30 O          65.4146   93.8002   11.0741 O.3     1  UNL1       -0.4044
     31 C          66.5259   94.1126   10.1163 C.3     1  UNL1        0.5753
     32 F          67.6373   94.4250    9.1584 F       1  UNL1       -0.1328
     33 F          66.9008   92.6607   10.0776 F       1  UNL1       -0.1328
     34 F          66.1511   95.5645   10.1549 F       1  UNL1       -0.1328
@<TRIPOS>UNITY_ATOM_ATTR
20 1
charge -1
@<TRIPOS>BOND
     1    28    29    3
     2    29    22    1
     3    22    23   ar
     4    23    24   ar
     5    24    30    1
     6    30    31    1
     7    31    32    1
     8    31    33    1
     9    31    34    1
    10    24    25   ar
    11    25    26   ar
    12    26     1    1
    13     1     2   ar
    14     2     3   ar
    15     3     6    1
    16     6     7   ar
    17     7     8   ar
    18     8     9   ar
    19     9    10   ar
    20    10    11   ar
    21    10    12    1
    22    12    13    1
    23    13    14    1
    24    14    15   am
    25    15    16    2
    26    15    17    1
    27    17    18    1
    28    18    19    1
    29    19    20   ar
    30    19    21   ar
    31     3     4   ar
    32     4     5   ar
    33    26    27   ar
    34    27    22   ar
    35     5     1   ar
    36    11     6   ar
    37    14     9    1
@<TRIPOS>MOLECULE
*****
 34 37 0 0 0
SMALL
GASTEIGER

@<TRIPOS>ATOM
      1 C          63.9573   90.5386   12.6753 C.ar    1  UNL1        0.2601
      2 N          64.3509   89.1031   12.8606 N.ar    1  UNL1       -0.1870
      3 C          63.1742   88.2486   12.4927 C.ar    1  UNL1        0.2036
      4 N          62.0533   89.1561   12.0802 N.ar    1  UNL1       -0.0556
      5 O          62.5373   90.5714   12.1930 O.2     1  UNL1       -0.3324
      6 C          63.1267   86.7498   12.5308 C.ar    1  UNL1        0.0389
      7 C          62.7685   85.9792   11.2948 C.ar    1  UNL1        0.0044
      8 C          62.7210   84.4805   11.3329 C.ar    1  UNL1        0.0147
      9 C          63.0316   83.7524   12.6070 C.ar    1  UNL1        0.0499
     10 C          63.3898   84.5230   13.8430 C.ar    1  UNL1       -0.0067
     11 C          63.4373   86.0217   13.8049 C.ar    1  UNL1        0.0002
     12 C          63.6450   83.5384   14.9455 C.3     1  UNL1        0.0495
     13 C          63.4445   82.1592   14.3908 C.3     1  UNL1        0.1029
     14 N          63.0654   82.2914   12.9455 N.am    1  UNL1       -0.2586
     15 C          62.7717   81.1612   12.0041 C.2     1  UNL1        0.2297
     16 O          62.4039   81.4488   10.5786 O.2     1  UNL1       -0.2745
     17 C          62.8458   79.7434   12.4881 C.3     1  UNL1        0.0915
     18 C          62.1808   78.6486   11.7077 C.3     1  UNL1        0.0513
     19 C          62.8681   78.0544   10.5141 C.2     1  UNL1        0.0508
     20 O          63.2728   76.6101   10.5236 O.co2   1  UNL1       -0.5492
     21 O          63.1506   78.9046    9.3110 O.co2   1  UNL1       -0.5492
     22 C          65.9764   93.9021   12.0757 C.ar    1  UNL1        0.0716
     23 C          66.5765   94.1184   13.4334 C.ar    1  UNL1        0.0475
     24 C          66.3035   93.1414   14.5384 C.ar    1  UNL1        0.1476
     25 C          65.4304   91.9482   14.2857 C.ar    1  UNL1        0.0420
     26 C          64.8304   91.7319   12.9280 C.ar    1  UNL1        0.0598
     27 C          65.1034   92.7089   11.8231 C.ar    1  UNL1        0.0152
     28 N          66.5226   95.8562    9.8659 N.1     1  UNL1       -0.1908
     29 C          66.2495   94.8791   10.9708 C.1     1  UNL1        0.1005
     30 O          66.9035   93.3577   15.8960 O.3     1  UNL1       -0.4044
     31 C          68.3493   93.0389   16.1364 C.3     1  UNL1        0.5753
     32 F          69.7953   92.7200   16.3767 F       1  UNL1       -0.1328
     33 F          68.0290   91.5736   16.1197 F       1  UNL1       -0.1328
     34 F          68.6697   94.5041   16.1530 F       1  UNL1       -0.1328
@<TRIPOS>UNITY_ATOM_ATTR
20 1
charge -1
@<TRIPOS>BOND
     1    28    29    3
     2    29    22    1
     3    22    23   ar
     4    23    24   ar
     5    24    30    1
     6    30    31    1
     7    31    32    1
     8    31    33    1
     9    31    34    1
    10    24    25   ar
    11    25    26   ar
    12    26     1    1
    13     1     2   ar
    14     2     3   ar
    15     3     6    1
    16     6     7   ar
    17     7     8   ar
    18     8     9   ar
    19     9    10   ar
    20    10    11   ar
    21    10    12    1
    22    12    13    1
    23    13    14    1
    24    14    15   am
    25    15    16    2
    26    15    17    1
    27    17    18    1
    28    18    19    1
    29    19    20   ar
    30    19    21   ar
    31     3     4   ar
    32     4     5   ar
    33    26    27   ar
    34    27    22   ar
    35     5     1   ar
    36    11     6   ar
    37    14     9    1
@<TRIPOS>MOLECULE
*****
 34 37 0 0 0
SMALL
GASTEIGER

@<TRIPOS>ATOM
      1 C          63.9952   90.9457   12.2492 C.ar    1  UNL1        0.2601
      2 N          64.4243   89.5455   12.5737 N.ar    1  UNL1       -0.1870
      3 C          63.2553   88.6358   12.3369 C.ar    1  UNL1        0.2036
      4 N          62.1038   89.4738   11.8660 N.ar    1  UNL1       -0.0556
      5 O          62.5610   90.9014   11.8117 O.2     1  UNL1       -0.3324
      6 C          63.2405   87.1491   12.5360 C.ar    1  UNL1        0.0389
      7 C          63.7157   86.5611   13.8315 C.ar    1  UNL1        0.0044
      8 C          63.7008   85.0745   14.0306 C.ar    1  UNL1        0.0147
      9 C          63.2108   84.1758   12.9341 C.ar    1  UNL1        0.0499
     10 C          62.7357   84.7638   11.6385 C.ar    1  UNL1       -0.0067
     11 C          62.7505   86.2504   11.4395 C.ar    1  UNL1        0.0002
     12 C          62.3116   83.6357   10.7455 C.3     1  UNL1        0.0495
     13 C          62.5247   82.3505   11.4891 C.3     1  UNL1        0.1029
     14 N          63.0805   82.6843   12.8417 N.am    1  UNL1       -0.2586
     15 C          63.4423   81.6996   13.9138 C.2     1  UNL1        0.2297
     16 O          63.9905   82.1841   15.2233 O.2     1  UNL1       -0.2745
     17 C          63.2560   80.2303   13.6764 C.3     1  UNL1        0.0915
     18 C          61.8739   79.6542   13.5872 C.3     1  UNL1        0.0513
     19 C          60.7140   80.3910   14.1885 C.2     1  UNL1        0.0508
     20 O          60.8753   81.8179   14.6223 O.co2   1  UNL1       -0.5492
     21 O          59.3927   79.7010   14.3561 O.co2   1  UNL1       -0.5492
     22 C          66.5613   93.6283   13.6521 C.ar    1  UNL1        0.0716
     23 C          66.5600   94.6319   12.5372 C.ar    1  UNL1        0.0475
     24 C          65.7038   94.4068   11.3264 C.ar    1  UNL1        0.1476
     25 C          64.8489   93.1780   11.2304 C.ar    1  UNL1        0.0420
     26 C          64.8501   92.1744   12.3452 C.ar    1  UNL1        0.0598
     27 C          65.7063   92.3997   13.5560 C.ar    1  UNL1        0.0152
     28 N          68.2737   94.0788   16.0738 N.1     1  UNL1       -0.1908
     29 C          67.4175   93.8536   14.8630 C.1     1  UNL1        0.1005
     30 O          65.7026   95.4103   10.2115 O.3     1  UNL1       -0.4044
     31 C          66.9555   95.6595    9.4254 C.3     1  UNL1        0.5753
     32 F          68.2085   95.9086    8.6391 F       1  UNL1       -0.1328
     33 F          66.6574   94.4630    8.5712 F       1  UNL1       -0.1328
     34 F          67.2536   96.8559   10.2795 F       1  UNL1       -0.1328
@<TRIPOS>UNITY_ATOM_ATTR
20 1
charge -1
@<TRIPOS>BOND
     1    28    29    3
     2    29    22    1
     3    22    23   ar
     4    23    24   ar
     5    24    30    1
     6    30    31    1
     7    31    32    1
     8    31    33    1
     9    31    34    1
    10    24    25   ar
    11    25    26   ar
    12    26     1    1
    13     1     2   ar
    14     2     3   ar
    15     3     6    1
    16     6     7   ar
    17     7     8   ar
    18     8     9   ar
    19     9    10   ar
    20    10    11   ar
    21    10    12    1
    22    12    13    1
    23    13    14    1
    24    14    15   am
    25    15    16    2
    26    15    17    1
    27    17    18    1
    28    18    19    1
    29    19    20   ar
    30    19    21   ar
    31     3     4   ar
    32     4     5   ar
    33    26    27   ar
    34    27    22   ar
    35     5     1   ar
    36    11     6   ar
    37    14     9    1
@<TRIPOS>MOLECULE
*****
 34 37 0 0 0
SMALL
GASTEIGER

@<TRIPOS>ATOM
      1 C          63.2045   85.4169   14.1228 C.ar    1  UNL1        0.2601
      2 N          63.5078   86.5669   13.2088 N.ar    1  UNL1       -0.1870
      3 C          63.8701   87.7500   14.0568 C.ar    1  UNL1        0.2036
      4 N          63.7906   87.3312   15.4949 N.ar    1  UNL1       -0.0556
      5 O          63.3793   85.8893   15.5358 O.2     1  UNL1       -0.3324
      6 C          64.2458   89.1127   13.5547 C.ar    1  UNL1        0.0389
      7 C          65.1177   90.0047   14.3877 C.ar    1  UNL1        0.0044
      8 C          65.4934   91.3673   13.8857 C.ar    1  UNL1        0.0147
      9 C          64.9971   91.8379   12.5507 C.ar    1  UNL1        0.0499
     10 C          64.1252   90.9459   11.7177 C.ar    1  UNL1       -0.0067
     11 C          63.7495   89.5833   12.2197 C.ar    1  UNL1        0.0002
     12 C          63.7895   91.6769   10.4516 C.3     1  UNL1        0.0495
     13 C          64.4541   93.0207   10.5021 C.3     1  UNL1        0.1029
     14 N          65.2004   93.1203   11.7994 N.am    1  UNL1       -0.2586
     15 C          66.0082   94.2957   12.2639 C.2     1  UNL1        0.2297
     16 O          66.7028   94.2504   13.5927 O.2     1  UNL1       -0.2745
     17 C          66.1214   95.5165   11.3997 C.3     1  UNL1        0.0915
     18 C          67.2780   95.6627   10.4559 C.3     1  UNL1        0.0513
     19 C          67.5330   94.6142    9.4139 C.2     1  UNL1        0.0508
     20 O          67.0013   94.7943    8.0229 O.co2   1  UNL1       -0.5492
     21 O          68.3196   93.3857    9.7629 O.co2   1  UNL1       -0.5492
     22 C          62.9203   82.0791   11.9949 C.ar    1  UNL1        0.0716
     23 C          61.9845   81.2768   12.8498 C.ar    1  UNL1        0.0475
     24 C          61.4555   81.8545   14.1289 C.ar    1  UNL1        0.1476
     25 C          61.8622   83.2345   14.5533 C.ar    1  UNL1        0.0420
     26 C          62.7979   84.0368   13.6985 C.ar    1  UNL1        0.0598
     27 C          63.3269   83.4591   12.4193 C.ar    1  UNL1        0.0152
     28 N          63.9783   80.9236    9.4365 N.1     1  UNL1       -0.1908
     29 C          63.4493   81.5014   10.7157 C.1     1  UNL1        0.1005
     30 O          60.5198   81.0521   14.9838 O.3     1  UNL1       -0.4044
     31 C          59.7311   79.9277   14.3810 C.3     1  UNL1        0.5753
     32 F          58.9423   78.8031   13.7781 F       1  UNL1       -0.1328
     33 F          60.9934   79.1370   14.2040 F       1  UNL1       -0.1328
     34 F          58.4687   80.7182   14.5579 F       1  UNL1       -0.1328
@<TRIPOS>UNITY_ATOM_ATTR
20 1
charge -1
@<TRIPOS>BOND
     1    28    29    3
     2    29    22    1
     3    22    23   ar
     4    23    24   ar
     5    24    30    1
     6    30    31    1
     7    31    32    1
     8    31    33    1
     9    31    34    1
    10    24    25   ar
    11    25    26   ar
    12    26     1    1
    13     1     2   ar
    14     2     3   ar
    15     3     6    1
    16     6     7   ar
    17     7     8   ar
    18     8     9   ar
    19     9    10   ar
    20    10    11   ar
    21    10    12    1
    22    12    13    1
    23    13    14    1
    24    14    15   am
    25    15    16    2
    26    15    17    1
    27    17    18    1
    28    18    19    1
    29    19    20   ar
    30    19    21   ar
    31     3     4   ar
    32     4     5   ar
    33    26    27   ar
    34    27    22   ar
    35     5     1   ar
    36    11     6   ar
    37    14     9    1
