@<TRIPOS>MOLECULE
*****
 30 34 0 0 0
SMALL
GASTEIGER

@<TRIPOS>ATOM
      1 O          62.4815   85.1723   14.9309 O.3     1  UNL1       -0.4630
      2 C          63.1754   80.1623   13.7399 C.3     1  UNL1        0.0308
      3 C          62.9865   81.5862   13.3077 C.ar    1  UNL1       -0.0231
      4 C          62.8284   82.6673   14.3355 C.ar    1  UNL1        0.0324
      5 C          62.6396   84.0912   13.9031 C.ar    1  UNL1        0.1402
      6 C          62.6087   84.4341   12.4432 C.ar    1  UNL1        0.0479
      7 C          62.7668   83.3529   11.4155 C.ar    1  UNL1       -0.0171
      8 C          62.9557   81.9290   11.8477 C.ar    1  UNL1       -0.0292
      9 C          63.1138   80.8480   10.8199 C.3     1  UNL1        0.0304
     10 C          62.6951   83.9890   10.0589 C.3     1  UNL1        0.0606
     11 C          62.4926   85.4632   10.2482 C.ar    1  UNL1        0.0308
     12 S          62.3231   86.7673    9.5268 S.2     1  UNL1       -0.0685
     13 C          62.1650   87.8484   10.5545 C.ar    1  UNL1        0.1342
     14 N          62.2368   87.2124   11.9112 N.ar    1  UNL1       -0.2365
     15 C          62.4393   85.7382   11.7218 C.ar    1  UNL1        0.0868
     16 C          63.6940   85.7971   15.5549 C.3     1  UNL1        0.3201
     17 P          64.0774   87.2042   15.2041 P.3     1  UNL1        0.3872
     18 O          64.8630   86.4545   14.1693 O.2     1  UNL1       -0.2539
     19 O          63.1586   87.4652   16.3607 O.3     1  UNL1       -0.2916
     20 C          62.8961   88.8730   16.8070 C.3     1  UNL1        0.1543
     21 C          63.5523   90.0198   16.0968 C.3     1  UNL1        0.0673
     22 C          64.4710   89.7587   14.9402 C.3     1  UNL1        0.1499
     23 O          64.7336   88.3509   14.4938 O.3     1  UNL1       -0.2896
     24 C          65.1272   90.9054   14.2299 C.ar    1  UNL1        0.0187
     25 C          66.3578   91.5399   14.8073 C.ar    1  UNL1        0.0008
     26 C          67.0140   92.6866   14.0970 C.ar    1  UNL1        0.0204
     27 C          66.4398   93.1988   12.8095 C.ar    1  UNL1        0.0984
     28 N          65.2093   92.5643   12.2321 N.ar    1  UNL1       -0.2484
     29 C          64.5531   91.4176   12.9424 C.ar    1  UNL1        0.0577
     30 C          63.3225   90.7832   12.3650 C.3     1  UNL1        0.0518
@<TRIPOS>BOND
     1     2     3    1
     2     3     4   ar
     3     4     5   ar
     4     5     1    1
     5     1    16    1
     6    17    16    1
     7    17    18    2
     8    17    19    1
     9    19    20    1
    10    20    21    1
    11    21    22    1
    12    22    24    1
    13    24    25   ar
    14    25    26   ar
    15    26    27   ar
    16    27    28   ar
    17    28    29   ar
    18    29    30    1
    19    22    23    1
    20     5     6   ar
    21     6     7   ar
    22     7     8   ar
    23     8     9    1
    24     7    10    1
    25    10    11    1
    26    11    12   ar
    27    12    13   ar
    28    13    14   ar
    29    14    15   ar
    30     8     3   ar
    31    15    11   ar
    32    23    17    1
    33    15     6    1
    34    29    24   ar
@<TRIPOS>MOLECULE
*****
 30 34 0 0 0
SMALL
GASTEIGER

@<TRIPOS>ATOM
      1 O          62.9250   89.6240   12.6811 O.3     1  UNL1       -0.4630
      2 C          64.8333   85.3266   14.8926 C.3     1  UNL1        0.0308
      3 C          64.0212   85.9823   13.8153 C.ar    1  UNL1       -0.0231
      4 C          63.8791   87.4754   13.7868 C.ar    1  UNL1        0.0324
      5 C          63.0670   88.1311   12.7095 C.ar    1  UNL1        0.1402
      6 C          62.3971   87.2939   11.6606 C.ar    1  UNL1        0.0479
      7 C          62.5392   85.8008   11.6891 C.ar    1  UNL1       -0.0171
      8 C          63.3513   85.1451   12.7664 C.ar    1  UNL1       -0.0292
      9 C          63.4933   83.6521   12.7948 C.3     1  UNL1        0.0304
     10 C          61.7693   85.2398   10.5303 C.3     1  UNL1        0.0606
     11 C          61.1515   86.3861    9.7858 C.ar    1  UNL1        0.0308
     12 S          60.2938   86.7477    8.6095 S.2     1  UNL1       -0.0685
     13 C          60.1517   88.2407    8.5812 C.ar    1  UNL1        0.1342
     14 N          60.9216   88.8018    9.7398 N.ar    1  UNL1       -0.2365
     15 C          61.5394   87.6555   10.4844 C.ar    1  UNL1        0.0868
     16 C          63.9139   90.4855   13.4090 C.3     1  UNL1        0.3201
     17 P          64.6074   91.6038   12.6889 P.3     1  UNL1        0.3872
     18 O          63.8128   91.0194   11.5588 O.2     1  UNL1       -0.2539
     19 O          65.1611   91.7999   14.0691 O.3     1  UNL1       -0.2916
     20 C          66.1324   92.9112   14.3366 C.3     1  UNL1        0.1543
     21 C          66.5499   93.8265   13.2240 C.3     1  UNL1        0.0673
     22 C          65.9961   93.6305   11.8438 C.3     1  UNL1        0.1499
     23 O          65.0248   92.5191   11.5762 O.3     1  UNL1       -0.2896
     24 C          66.4135   94.5458   10.7312 C.ar    1  UNL1        0.0187
     25 C          65.8662   95.9407   10.6622 C.ar    1  UNL1        0.0008
     26 C          66.2836   96.8560    9.5496 C.ar    1  UNL1        0.0204
     27 C          67.2483   96.3765    8.5059 C.ar    1  UNL1        0.0984
     28 N          67.7957   94.9816    8.5749 N.ar    1  UNL1       -0.2484
     29 C          67.3783   94.0663    9.6875 C.ar    1  UNL1        0.0577
     30 C          67.9256   92.6714    9.7565 C.3     1  UNL1        0.0518
@<TRIPOS>BOND
     1     2     3    1
     2     3     4   ar
     3     4     5   ar
     4     5     1    1
     5     1    16    1
     6    17    16    1
     7    17    18    2
     8    17    19    1
     9    19    20    1
    10    20    21    1
    11    21    22    1
    12    22    24    1
    13    24    25   ar
    14    25    26   ar
    15    26    27   ar
    16    27    28   ar
    17    28    29   ar
    18    29    30    1
    19    22    23    1
    20     5     6   ar
    21     6     7   ar
    22     7     8   ar
    23     8     9    1
    24     7    10    1
    25    10    11    1
    26    11    12   ar
    27    12    13   ar
    28    13    14   ar
    29    14    15   ar
    30     8     3   ar
    31    15    11   ar
    32    23    17    1
    33    15     6    1
    34    29    24   ar
@<TRIPOS>MOLECULE
*****
 30 34 0 0 0
SMALL
GASTEIGER

@<TRIPOS>ATOM
      1 O          63.4693   88.7007   13.0844 O.3     1  UNL1       -0.4630
      2 C          60.5611   88.9737    8.7869 C.3     1  UNL1        0.0308
      3 C          61.2916   88.1571    9.8114 C.ar    1  UNL1       -0.0231
      4 C          62.0153   88.8372   10.9357 C.ar    1  UNL1        0.0324
      5 C          62.7457   88.0206   11.9602 C.ar    1  UNL1        0.1402
      6 C          62.7525   86.5240   11.8605 C.ar    1  UNL1        0.0479
      7 C          62.0289   85.8439   10.7362 C.ar    1  UNL1       -0.0171
      8 C          61.2984   86.6604    9.7117 C.ar    1  UNL1       -0.0292
      9 C          60.5748   85.9803    8.5875 C.3     1  UNL1        0.0304
     10 C          62.2102   84.3635   10.8967 C.3     1  UNL1        0.0606
     11 C          63.0458   84.1287   12.1200 C.ar    1  UNL1        0.0308
     12 S          63.6742   83.0686   12.9752 S.2     1  UNL1       -0.0685
     13 C          64.3978   83.7488   14.0994 C.ar    1  UNL1        0.1342
     14 N          64.2166   85.2291   13.9390 N.ar    1  UNL1       -0.2365
     15 C          63.3810   85.4639   12.7157 C.ar    1  UNL1        0.0868
     16 C          63.2242   90.1539   13.3637 C.3     1  UNL1        0.3201
     17 P          64.1284   91.1943   12.7720 P.3     1  UNL1        0.3872
     18 O          62.9747   91.2783   11.8170 O.2     1  UNL1       -0.2539
     19 O          64.9681   90.7491   13.9325 O.3     1  UNL1       -0.2916
     20 C          66.3112   91.3733   14.1696 C.3     1  UNL1        0.1543
     21 C          66.8147   92.4428   13.2462 C.3     1  UNL1        0.0673
     22 C          65.9751   92.8881   12.0857 C.3     1  UNL1        0.1499
     23 O          64.6319   92.2638   11.8486 O.3     1  UNL1       -0.2896
     24 C          66.4786   93.9576   11.1623 C.ar    1  UNL1        0.0187
     25 C          66.0651   95.3843   11.3711 C.ar    1  UNL1        0.0008
     26 C          66.5686   96.4538   10.4477 C.ar    1  UNL1        0.0204
     27 C          67.4854   96.0967    9.3156 C.ar    1  UNL1        0.0984
     28 N          67.8988   94.6700    9.1068 N.ar    1  UNL1       -0.2484
     29 C          67.3954   93.6005   10.0302 C.ar    1  UNL1        0.0577
     30 C          67.8088   92.1737    9.8214 C.3     1  UNL1        0.0518
@<TRIPOS>BOND
     1     2     3    1
     2     3     4   ar
     3     4     5   ar
     4     5     1    1
     5     1    16    1
     6    17    16    1
     7    17    18    2
     8    17    19    1
     9    19    20    1
    10    20    21    1
    11    21    22    1
    12    22    24    1
    13    24    25   ar
    14    25    26   ar
    15    26    27   ar
    16    27    28   ar
    17    28    29   ar
    18    29    30    1
    19    22    23    1
    20     5     6   ar
    21     6     7   ar
    22     7     8   ar
    23     8     9    1
    24     7    10    1
    25    10    11    1
    26    11    12   ar
    27    12    13   ar
    28    13    14   ar
    29    14    15   ar
    30     8     3   ar
    31    15    11   ar
    32    23    17    1
    33    15     6    1
    34    29    24   ar
@<TRIPOS>MOLECULE
*****
 30 34 0 0 0
SMALL
GASTEIGER

@<TRIPOS>ATOM
      1 O          61.5022   88.6797   12.2064 O.3     1  UNL1       -0.4630
      2 C          59.4852   88.1393    7.4483 C.3     1  UNL1        0.0308
      3 C          60.2908   87.5895    8.5878 C.ar    1  UNL1       -0.0231
      4 C          60.4937   88.4095    9.8274 C.ar    1  UNL1        0.0324
      5 C          61.2994   87.8596   10.9670 C.ar    1  UNL1        0.1402
      6 C          61.9022   86.4898   10.8670 C.ar    1  UNL1        0.0479
      7 C          61.6993   85.6697    9.6274 C.ar    1  UNL1       -0.0171
      8 C          60.8937   86.2196    8.4879 C.ar    1  UNL1       -0.0292
      9 C          60.6909   85.3995    7.2484 C.3     1  UNL1        0.0304
     10 C          62.4100   84.3622    9.8153 C.3     1  UNL1        0.0606
     11 C          63.0521   84.3741   11.1709 C.ar    1  UNL1        0.0308
     12 S          63.8882   83.5734   12.1247 S.2     1  UNL1       -0.0685
     13 C          64.0910   84.3935   13.3642 C.ar    1  UNL1        0.1342
     14 N          63.3803   85.7010   13.1764 N.ar    1  UNL1       -0.2365
     15 C          62.7382   85.6890   11.8209 C.ar    1  UNL1        0.0868
     16 C          61.7713   90.1512   12.0965 C.3     1  UNL1        0.3201
     17 P          63.0712   90.7148   12.5891 P.3     1  UNL1        0.3872
     18 O          62.6126   89.9990   13.8250 O.2     1  UNL1       -0.2539
     19 O          63.0784   91.2349   11.1821 O.3     1  UNL1       -0.2916
     20 C          64.2262   92.0699   10.6971 C.3     1  UNL1        0.1543
     21 C          65.3668   92.3849   11.6189 C.3     1  UNL1        0.0673
     22 C          65.3596   91.8648   13.0259 C.3     1  UNL1        0.1499
     23 O          64.2118   91.0298   13.5110 O.3     1  UNL1       -0.2896
     24 C          66.5002   92.1798   13.9477 C.ar    1  UNL1        0.0187
     25 C          66.2275   92.6041   15.3604 C.ar    1  UNL1        0.0008
     26 C          67.3681   92.9191   16.2823 C.ar    1  UNL1        0.0204
     27 C          68.7812   92.8097   15.7917 C.ar    1  UNL1        0.0984
     28 N          69.0540   92.3853   14.3790 N.ar    1  UNL1       -0.2484
     29 C          67.9134   92.0704   13.4571 C.ar    1  UNL1        0.0577
     30 C          68.1861   91.6460   12.0444 C.3     1  UNL1        0.0518
@<TRIPOS>BOND
     1     2     3    1
     2     3     4   ar
     3     4     5   ar
     4     5     1    1
     5     1    16    1
     6    17    16    1
     7    17    18    2
     8    17    19    1
     9    19    20    1
    10    20    21    1
    11    21    22    1
    12    22    24    1
    13    24    25   ar
    14    25    26   ar
    15    26    27   ar
    16    27    28   ar
    17    28    29   ar
    18    29    30    1
    19    22    23    1
    20     5     6   ar
    21     6     7   ar
    22     7     8   ar
    23     8     9    1
    24     7    10    1
    25    10    11    1
    26    11    12   ar
    27    12    13   ar
    28    13    14   ar
    29    14    15   ar
    30     8     3   ar
    31    15    11   ar
    32    23    17    1
    33    15     6    1
    34    29    24   ar
@<TRIPOS>MOLECULE
*****
 30 34 0 0 0
SMALL
GASTEIGER

@<TRIPOS>ATOM
      1 O          63.1537   89.5742   14.7766 O.3     1  UNL1       -0.4630
      2 C          66.7093   93.1055   13.4025 C.3     1  UNL1        0.0308
      3 C          65.5422   92.2318   13.0496 C.ar    1  UNL1       -0.0231
      4 C          64.9314   91.3398   14.0896 C.ar    1  UNL1        0.0324
      5 C          63.7643   90.4662   13.7366 C.ar    1  UNL1        0.1402
      6 C          63.2078   90.4845   12.3439 C.ar    1  UNL1        0.0479
      7 C          63.8186   91.3765   11.3039 C.ar    1  UNL1       -0.0171
      8 C          64.9857   92.2502   11.6568 C.ar    1  UNL1       -0.0292
      9 C          65.5963   93.1421   10.6168 C.3     1  UNL1        0.0304
     10 C          63.0608   91.1825   10.0240 C.3     1  UNL1        0.0606
     11 C          61.9818   90.1706   10.2729 C.ar    1  UNL1        0.0308
     12 S          60.8467   89.4253    9.6356 S.2     1  UNL1       -0.0685
     13 C          60.2361   88.5334   10.6756 C.ar    1  UNL1        0.1342
     14 N          60.9938   88.7274   11.9555 N.ar    1  UNL1       -0.2365
     15 C          62.0727   89.7392   11.7066 C.ar    1  UNL1        0.0868
     16 C          63.9555   88.4525   15.3671 C.3     1  UNL1        0.3201
     17 P          63.6673   87.0348   14.9708 P.3     1  UNL1        0.3872
     18 O          64.2503   87.5504   13.6885 O.2     1  UNL1       -0.2539
     19 O          63.1844   87.0116   16.3908 O.3     1  UNL1       -0.2916
     20 C          62.6157   85.7498   16.9690 C.3     1  UNL1        0.1543
     21 C          62.5299   84.5111   16.1273 C.3     1  UNL1        0.0673
     22 C          63.0128   84.5343   14.7073 C.3     1  UNL1        0.1499
     23 O          63.5815   85.7962   14.1291 O.3     1  UNL1       -0.2896
     24 C          62.9271   83.2957   13.8656 C.ar    1  UNL1        0.0187
     25 C          63.0212   81.9439   14.5088 C.ar    1  UNL1        0.0008
     26 C          62.9354   80.7053   13.6671 C.ar    1  UNL1        0.0204
     27 C          62.7556   80.8184   12.1823 C.ar    1  UNL1        0.0984
     28 N          62.6615   82.1703   11.5391 N.ar    1  UNL1       -0.2484
     29 C          62.7473   83.4089   12.3808 C.ar    1  UNL1        0.0577
     30 C          62.6532   84.7608   11.7376 C.3     1  UNL1        0.0518
@<TRIPOS>BOND
     1     2     3    1
     2     3     4   ar
     3     4     5   ar
     4     5     1    1
     5     1    16    1
     6    17    16    1
     7    17    18    2
     8    17    19    1
     9    19    20    1
    10    20    21    1
    11    21    22    1
    12    22    24    1
    13    24    25   ar
    14    25    26   ar
    15    26    27   ar
    16    27    28   ar
    17    28    29   ar
    18    29    30    1
    19    22    23    1
    20     5     6   ar
    21     6     7   ar
    22     7     8   ar
    23     8     9    1
    24     7    10    1
    25    10    11    1
    26    11    12   ar
    27    12    13   ar
    28    13    14   ar
    29    14    15   ar
    30     8     3   ar
    31    15    11   ar
    32    23    17    1
    33    15     6    1
    34    29    24   ar
@<TRIPOS>MOLECULE
*****
 30 34 0 0 0
SMALL
GASTEIGER

@<TRIPOS>ATOM
      1 O          63.5161   88.6952   14.6009 O.3     1  UNL1       -0.4630
      2 C          67.0783   92.4225   13.9544 C.3     1  UNL1        0.0308
      3 C          65.8557   91.6971   13.4760 C.ar    1  UNL1       -0.0231
      4 C          65.2972   90.5588   14.2777 C.ar    1  UNL1        0.0324
      5 C          64.0745   89.8334   13.7993 C.ar    1  UNL1        0.1402
      6 C          63.4103   90.2462   12.5193 C.ar    1  UNL1        0.0479
      7 C          63.9688   91.3844   11.7177 C.ar    1  UNL1       -0.0171
      8 C          65.1914   92.1099   12.1960 C.ar    1  UNL1       -0.0292
      9 C          65.7498   93.2481   11.3943 C.3     1  UNL1        0.0304
     10 C          63.1052   91.5644   10.5044 C.3     1  UNL1        0.0606
     11 C          62.0131   90.5375   10.5563 C.ar    1  UNL1        0.0308
     12 S          60.8044   90.0141    9.8385 S.2     1  UNL1       -0.0685
     13 C          60.2460   88.8759   10.6401 C.ar    1  UNL1        0.1342
     14 N          61.1095   88.6958   11.8534 N.ar    1  UNL1       -0.2365
     15 C          62.2017   89.7228   11.8015 C.ar    1  UNL1        0.0868
     16 C          64.3492   87.4727   14.8487 C.3     1  UNL1        0.3201
     17 P          63.8727   86.1317   14.3746 P.3     1  UNL1        0.3872
     18 O          64.3560   85.7662   15.7468 O.2     1  UNL1       -0.2539
     19 O          63.5549   86.9628   13.1671 O.3     1  UNL1       -0.2916
     20 C          62.9284   86.3261   11.9621 C.3     1  UNL1        0.1543
     21 C          62.6198   84.8582   11.9646 C.3     1  UNL1        0.0673
     22 C          62.9377   84.0270   13.1721 C.3     1  UNL1        0.1499
     23 O          63.5641   84.6638   14.3772 O.3     1  UNL1       -0.2896
     24 C          62.6291   82.5591   13.1746 C.ar    1  UNL1        0.0187
     25 C          61.7413   81.9812   14.2367 C.ar    1  UNL1        0.0008
     26 C          61.4327   80.5133   14.2392 C.ar    1  UNL1        0.0204
     27 C          62.0118   79.6233   13.1799 C.ar    1  UNL1        0.0984
     28 N          62.8996   80.2012   12.1178 N.ar    1  UNL1       -0.2484
     29 C          63.2082   81.6691   12.1153 C.ar    1  UNL1        0.0577
     30 C          64.0960   82.2470   11.0532 C.3     1  UNL1        0.0518
@<TRIPOS>BOND
     1     2     3    1
     2     3     4   ar
     3     4     5   ar
     4     5     1    1
     5     1    16    1
     6    17    16    1
     7    17    18    2
     8    17    19    1
     9    19    20    1
    10    20    21    1
    11    21    22    1
    12    22    24    1
    13    24    25   ar
    14    25    26   ar
    15    26    27   ar
    16    27    28   ar
    17    28    29   ar
    18    29    30    1
    19    22    23    1
    20     5     6   ar
    21     6     7   ar
    22     7     8   ar
    23     8     9    1
    24     7    10    1
    25    10    11    1
    26    11    12   ar
    27    12    13   ar
    28    13    14   ar
    29    14    15   ar
    30     8     3   ar
    31    15    11   ar
    32    23    17    1
    33    15     6    1
    34    29    24   ar
@<TRIPOS>MOLECULE
*****
 30 34 0 0 0
SMALL
GASTEIGER

@<TRIPOS>ATOM
      1 O          61.5509   89.0726   11.9086 O.3     1  UNL1       -0.4630
      2 C          59.3211   88.2951    7.2800 C.3     1  UNL1        0.0308
      3 C          60.1283   87.7823    8.4356 C.ar    1  UNL1       -0.0231
      4 C          60.4360   88.6839    9.5943 C.ar    1  UNL1        0.0324
      5 C          61.2432   88.1710   10.7499 C.ar    1  UNL1        0.1402
      6 C          61.7427   86.7567   10.7469 C.ar    1  UNL1        0.0479
      7 C          61.4350   85.8551    9.5882 C.ar    1  UNL1       -0.0171
      8 C          60.6279   86.3679    8.4326 C.ar    1  UNL1       -0.0292
      9 C          60.3202   85.4663    7.2739 C.3     1  UNL1        0.0304
     10 C          62.0575   84.5183    9.8631 C.3     1  UNL1        0.0606
     11 C          62.7499   84.5937   11.1916 C.ar    1  UNL1        0.0308
     12 S          63.5625   83.8141   12.1825 S.2     1  UNL1       -0.0685
     13 C          63.8701   84.7157   13.3411 C.ar    1  UNL1        0.1342
     14 N          63.2477   86.0525   13.0663 N.ar    1  UNL1       -0.2365
     15 C          62.5553   85.9771   11.7378 C.ar    1  UNL1        0.0868
     16 C          62.2486   90.3801   11.6769 C.3     1  UNL1        0.3201
     17 P          63.4290   90.7602   12.5208 P.3     1  UNL1        0.3872
     18 O          63.4511   91.8798   11.5227 O.2     1  UNL1       -0.2539
     19 O          62.9971   89.5086   13.2258 O.3     1  UNL1       -0.2916
     20 C          63.7531   89.0260   14.4280 C.3     1  UNL1        0.1543
     21 C          64.9412   89.7949   14.9253 C.3     1  UNL1        0.0673
     22 C          65.3732   91.0465   14.2203 C.3     1  UNL1        0.1499
     23 O          64.6171   91.5291   13.0180 O.3     1  UNL1       -0.2896
     24 C          66.5612   91.8154   14.7176 C.ar    1  UNL1        0.0187
     25 C          67.8488   91.7865   13.9484 C.ar    1  UNL1        0.0008
     26 C          69.0368   92.5555   14.4456 C.ar    1  UNL1        0.0204
     27 C          68.9375   93.3533   15.7119 C.ar    1  UNL1        0.0984
     28 N          67.6500   93.3821   16.4811 N.ar    1  UNL1       -0.2484
     29 C          66.4619   92.6132   15.9838 C.ar    1  UNL1        0.0577
     30 C          65.1744   92.6421   16.7530 C.3     1  UNL1        0.0518
@<TRIPOS>BOND
     1     2     3    1
     2     3     4   ar
     3     4     5   ar
     4     5     1    1
     5     1    16    1
     6    17    16    1
     7    17    18    2
     8    17    19    1
     9    19    20    1
    10    20    21    1
    11    21    22    1
    12    22    24    1
    13    24    25   ar
    14    25    26   ar
    15    26    27   ar
    16    27    28   ar
    17    28    29   ar
    18    29    30    1
    19    22    23    1
    20     5     6   ar
    21     6     7   ar
    22     7     8   ar
    23     8     9    1
    24     7    10    1
    25    10    11    1
    26    11    12   ar
    27    12    13   ar
    28    13    14   ar
    29    14    15   ar
    30     8     3   ar
    31    15    11   ar
    32    23    17    1
    33    15     6    1
    34    29    24   ar
@<TRIPOS>MOLECULE
*****
 30 34 0 0 0
SMALL
GASTEIGER

@<TRIPOS>ATOM
      1 O          62.9892   89.6972   15.3549 O.3     1  UNL1       -0.4630
      2 C          61.4485   89.8063   10.3936 C.3     1  UNL1        0.0308
      3 C          62.3767   90.2716   11.4761 C.ar    1  UNL1       -0.0231
      4 C          62.2188   89.7517   12.8743 C.ar    1  UNL1        0.0324
      5 C          63.1471   90.2171   13.9567 C.ar    1  UNL1        0.1402
      6 C          64.2333   91.2022   13.6411 C.ar    1  UNL1        0.0479
      7 C          64.3912   91.7221   12.2429 C.ar    1  UNL1       -0.0171
      8 C          63.4629   91.2568   11.1604 C.ar    1  UNL1       -0.0292
      9 C          63.6209   91.7767    9.7623 C.3     1  UNL1        0.0304
     10 C          65.5462   92.6792   12.2320 C.3     1  UNL1        0.0606
     11 C          66.1020   92.7508   13.6234 C.ar    1  UNL1        0.0308
     12 S          67.1594   93.3866   14.4765 S.2     1  UNL1       -0.0685
     13 C          67.0014   92.8667   15.8746 C.ar    1  UNL1        0.1342
     14 N          65.8465   91.9096   15.8856 N.ar    1  UNL1       -0.2365
     15 C          65.2906   91.8380   14.4942 C.ar    1  UNL1        0.0868
     16 C          63.8595   88.5764   15.8411 C.3     1  UNL1        0.3201
     17 P          63.6503   87.1848   15.3218 P.3     1  UNL1        0.3872
     18 O          64.4570   87.7639   14.1975 O.2     1  UNL1       -0.2539
     19 O          62.9162   87.0890   16.6264 O.3     1  UNL1       -0.2916
     20 C          62.2532   85.8028   17.0211 C.3     1  UNL1        0.1543
     21 C          62.3241   84.6123   16.1113 C.3     1  UNL1        0.0673
     22 C          63.0581   84.7081   14.8067 C.3     1  UNL1        0.1499
     23 O          63.7212   85.9944   14.4119 O.3     1  UNL1       -0.2896
     24 C          63.1291   83.5177   13.8969 C.ar    1  UNL1        0.0187
     25 C          63.5302   82.1793   14.4428 C.ar    1  UNL1        0.0008
     26 C          63.6011   80.9889   13.5330 C.ar    1  UNL1        0.0204
     27 C          63.2711   81.1367   12.0773 C.ar    1  UNL1        0.0984
     28 N          62.8701   82.4751   11.5313 N.ar    1  UNL1       -0.2484
     29 C          62.7991   83.6655   12.4412 C.ar    1  UNL1        0.0577
     30 C          62.3980   85.0039   11.8952 C.3     1  UNL1        0.0518
@<TRIPOS>BOND
     1     2     3    1
     2     3     4   ar
     3     4     5   ar
     4     5     1    1
     5     1    16    1
     6    17    16    1
     7    17    18    2
     8    17    19    1
     9    19    20    1
    10    20    21    1
    11    21    22    1
    12    22    24    1
    13    24    25   ar
    14    25    26   ar
    15    26    27   ar
    16    27    28   ar
    17    28    29   ar
    18    29    30    1
    19    22    23    1
    20     5     6   ar
    21     6     7   ar
    22     7     8   ar
    23     8     9    1
    24     7    10    1
    25    10    11    1
    26    11    12   ar
    27    12    13   ar
    28    13    14   ar
    29    14    15   ar
    30     8     3   ar
    31    15    11   ar
    32    23    17    1
    33    15     6    1
    34    29    24   ar
@<TRIPOS>MOLECULE
*****
 30 34 0 0 0
SMALL
GASTEIGER

@<TRIPOS>ATOM
      1 O          62.6162   85.2086   14.8311 O.3     1  UNL1       -0.4630
      2 C          62.4729   87.7345   10.2924 C.3     1  UNL1        0.0308
      3 C          62.5525   86.4494   11.0619 C.ar    1  UNL1       -0.0231
      4 C          62.5446   86.4715   12.5618 C.ar    1  UNL1        0.0324
      5 C          62.6242   85.1864   13.3312 C.ar    1  UNL1        0.1402
      6 C          62.7117   83.8791   12.6010 C.ar    1  UNL1        0.0479
      7 C          62.7196   83.8570   11.1011 C.ar    1  UNL1       -0.0171
      8 C          62.6400   85.1421   10.3316 C.ar    1  UNL1       -0.0292
      9 C          62.6480   85.1198    8.8318 C.3     1  UNL1        0.0304
     10 C          62.8138   82.4266   10.6593 C.3     1  UNL1        0.0606
     11 C          62.8641   81.5648   11.8860 C.ar    1  UNL1        0.0308
     12 S          62.9534   80.1482   12.3710 S.2     1  UNL1       -0.0685
     13 C          62.9455   80.1704   13.8708 C.ar    1  UNL1        0.1342
     14 N          62.8513   81.6007   14.3127 N.ar    1  UNL1       -0.2365
     15 C          62.8010   82.4625   13.0860 C.ar    1  UNL1        0.0868
     16 C          63.7335   85.8758   15.5772 C.3     1  UNL1        0.3201
     17 P          64.1083   87.2924   15.2571 P.3     1  UNL1        0.3872
     18 O          65.0150   86.5629   14.3106 O.2     1  UNL1       -0.2539
     19 O          63.0715   87.5300   16.3147 O.3     1  UNL1       -0.2916
     20 C          62.7244   88.9309   16.7234 C.3     1  UNL1        0.1543
     21 C          63.4142   90.0942   16.0746 C.3     1  UNL1        0.0673
     22 C          64.4510   89.8566   15.0169 C.3     1  UNL1        0.1499
     23 O          64.7981   88.4557   14.6082 O.3     1  UNL1       -0.2896
     24 C          65.1407   91.0199   14.3681 C.ar    1  UNL1        0.0187
     25 C          66.2745   91.7065   15.0704 C.ar    1  UNL1        0.0008
     26 C          66.9643   92.8697   14.4215 C.ar    1  UNL1        0.0204
     27 C          66.5204   93.3464   13.0704 C.ar    1  UNL1        0.0984
     28 N          65.3866   92.6598   12.3680 N.ar    1  UNL1       -0.2484
     29 C          64.6968   91.4966   13.0169 C.ar    1  UNL1        0.0577
     30 C          63.5631   90.8100   12.3146 C.3     1  UNL1        0.0518
@<TRIPOS>BOND
     1     2     3    1
     2     3     4   ar
     3     4     5   ar
     4     5     1    1
     5     1    16    1
     6    17    16    1
     7    17    18    2
     8    17    19    1
     9    19    20    1
    10    20    21    1
    11    21    22    1
    12    22    24    1
    13    24    25   ar
    14    25    26   ar
    15    26    27   ar
    16    27    28   ar
    17    28    29   ar
    18    29    30    1
    19    22    23    1
    20     5     6   ar
    21     6     7   ar
    22     7     8   ar
    23     8     9    1
    24     7    10    1
    25    10    11    1
    26    11    12   ar
    27    12    13   ar
    28    13    14   ar
    29    14    15   ar
    30     8     3   ar
    31    15    11   ar
    32    23    17    1
    33    15     6    1
    34    29    24   ar
