@<TRIPOS>MOLECULE
*****
 51 58 0 0 0
SMALL
GASTEIGER

@<TRIPOS>ATOM
      1 C          59.8928   88.7277    9.2560 C.ar    1  UNL1        0.1063
      2 C          59.4147   89.7134    8.2314 C.ar    1  UNL1        0.0210
      3 C          59.4129   89.3429    6.7779 C.ar    1  UNL1        0.0186
      4 C          59.8891   87.9869    6.3490 C.ar    1  UNL1        0.0784
      5 N          60.3672   87.0010    7.3735 N.ar    1  UNL1       -0.2911
      6 C          60.8434   85.6449    6.9445 C.3     1  UNL1        0.1336
      7 C          60.3690   87.3715    8.8271 C.ar    1  UNL1        0.2744
      8 O          60.8471   86.3857    9.8516 O.2     1  UNL1       -0.2656
      9 C          58.9348   90.3288    5.7533 C.ar    1  UNL1        0.0041
     10 C          57.4740   90.6526    5.6485 C.ar    1  UNL1        0.0206
     11 C          56.9959   91.6385    4.6240 C.ar    1  UNL1        0.1003
     12 N          57.9787   92.3004    3.7042 N.ar    1  UNL1       -0.2290
     13 C          59.4396   91.9765    3.8091 C.ar    1  UNL1        0.1360
     14 C          59.9176   90.9907    4.8336 C.ar    1  UNL1        0.0390
     15 N          60.4224   92.6383    2.8894 N.am    1  UNL1       -0.2373
     16 C          61.8111   92.9416    3.3683 C.3     1  UNL1        0.1244
     17 C          62.7940   93.6035    2.4486 C.3     1  UNL1        0.1277
     18 N          62.3881   93.9621    1.0498 N.ar    1  UNL1       -0.3256
     19 C          60.9993   93.6588    0.5708 C.ar    1  UNL1        0.1140
     20 C          60.8870   94.1255   -0.8504 C.ar    1  UNL1        0.0187
     21 C          62.2063   94.7172   -1.2496 C.ar    1  UNL1       -0.0089
     22 C          63.1340   94.6162   -0.0753 C.ar    1  UNL1        0.0333
     23 C          64.4533   95.2079   -0.4745 C.3     1  UNL1        0.0438
     24 C          64.3410   95.6745   -1.8956 C.3     1  UNL1        0.0096
     25 C          65.7686   96.0936   -1.7054 C.3     1  UNL1        0.0007
     26 C          64.5271   96.2288   -3.2770 C.3     1  UNL1        0.0007
     27 C          62.9522   95.3713   -2.3747 C.3     1  UNL1        0.0279
     28 C          60.0165   92.9970    1.4905 C.2     1  UNL1        0.2697
     29 O          58.6278   92.6937    1.0115 O.2     1  UNL1       -0.2679
     30 C          61.3785   90.6668    4.9384 C.3     1  UNL1        0.1664
     31 O          62.1167   90.1368    3.7450 O.3     1  UNL1       -0.3771
     32 H          61.7721   89.2597    3.5149 H       1  UNL1        0.2109
     33 N          59.8946   89.0981   10.7095 N.pl3   1  UNL1       -0.2942
     34 H          59.0884   88.9528   11.2556 H       1  UNL1        0.1537
     35 C          63.5853   90.8739   12.5739 C.ar    1  UNL1        0.0674
     36 C          63.3525   91.0067   11.0980 C.ar    1  UNL1        0.0190
     37 C          62.1223   90.4147   10.4766 C.ar    1  UNL1        0.0357
     38 C          61.1248   89.6900   11.3310 C.ar    1  UNL1        0.1324
     39 N          61.3576   89.5573   12.8068 N.ar    1  UNL1       -0.2278
     40 C          62.5879   90.1492   13.4283 C.ar    1  UNL1        0.1147
     41 C          65.3101   92.7510   10.9922 C.3     1  UNL1        0.0229
     42 C          65.6778   92.4044   12.4045 C.3     1  UNL1        0.0889
     43 C          66.9081   92.9963   13.0260 C.3     1  UNL1        0.0921
     44 N          67.2759   92.6497   14.4382 N.3     1  UNL1       -0.2668
     45 C          66.4135   91.7111   15.2290 C.3     1  UNL1        0.0939
     46 C          65.1833   91.1192   14.6076 C.3     1  UNL1        0.1081
     47 N          64.8155   91.4658   13.1953 N.pl3   1  UNL1       -0.3051
     48 C          68.5062   93.2416   15.0597 C.3     1  UNL1        0.1173
     49 C          69.9786   92.9731   14.9609 C.3     1  UNL1        0.1606
     50 O          70.2458   94.0788   15.9387 O.3     1  UNL1       -0.3507
     51 C          68.7734   94.3473   16.0375 C.3     1  UNL1        0.1606
@<TRIPOS>BOND
     1    42    41    1
     2    42    43    1
     3    43    44    1
     4    44    48    1
     5    48    49    1
     6    49    50    1
     7    50    51    1
     8    44    45    1
     9    45    46    1
    10    46    47    1
    11    47    35    1
    12    35    36   ar
    13    36    37   ar
    14    37    38   ar
    15    38    33    1
    16    33     1    1
    17     1     2   ar
    18     2     3   ar
    19     3     9    1
    20     9    10   ar
    21    10    11   ar
    22    11    12   ar
    23    12    13   ar
    24    13    15    1
    25    15    16    1
    26    16    17    1
    27    17    18    1
    28    18    19   ar
    29    19    20   ar
    30    20    21   ar
    31    21    22   ar
    32    22    23    1
    33    23    24    1
    34    24    25    1
    35    24    26    1
    36    24    27    1
    37    19    28    1
    38    28    29    2
    39    13    14   ar
    40    14    30    1
    41    30    31    1
    42     3     4   ar
    43     4     5   ar
    44     5     6    1
    45     5     7   ar
    46     7     8    2
    47    38    39   ar
    48    39    40   ar
    49    47    42    1
    50    40    35   ar
    51    51    48    1
    52     7     1   ar
    53    14     9   ar
    54    28    15   am
    55    22    18   ar
    56    27    21    1
    57    33    34    1
    58    31    32    1
@<TRIPOS>MOLECULE
*****
 51 58 0 0 0
SMALL
GASTEIGER

@<TRIPOS>ATOM
      1 C          63.5418   83.8979   13.1490 C.ar    1  UNL1        0.1063
      2 C          63.4575   85.3000   13.6754 C.ar    1  UNL1        0.0210
      3 C          63.6856   85.5686   15.1334 C.ar    1  UNL1        0.0186
      4 C          63.9980   84.4352   16.0649 C.ar    1  UNL1        0.0784
      5 N          64.0823   83.0331   15.5385 N.ar    1  UNL1       -0.2911
      6 C          64.3947   81.8998   16.4701 C.3     1  UNL1        0.1336
      7 C          63.8542   82.7645   14.0805 C.ar    1  UNL1        0.2744
      8 O          63.9385   81.3625   13.5540 O.2     1  UNL1       -0.2656
      9 C          63.6012   86.9707   15.6599 C.ar    1  UNL1        0.0041
     10 C          63.0115   87.2290   17.0145 C.ar    1  UNL1        0.0206
     11 C          62.9271   88.6311   17.5410 C.ar    1  UNL1        0.1003
     12 N          63.4326   89.7748   16.7126 N.ar    1  UNL1       -0.2290
     13 C          64.0224   89.5165   15.3578 C.ar    1  UNL1        0.1360
     14 C          64.1068   88.1144   14.8314 C.ar    1  UNL1        0.0390
     15 N          64.5280   90.6602   14.5294 N.am    1  UNL1       -0.2373
     16 C          65.5260   91.6202   15.1057 C.3     1  UNL1        0.1244
     17 C          66.0315   92.7640   14.2772 C.3     1  UNL1        0.1277
     18 N          65.5389   92.9477   12.8724 N.ar    1  UNL1       -0.3256
     19 C          64.5408   91.9877   12.2961 C.ar    1  UNL1        0.1140
     20 C          64.2395   92.4200   10.8916 C.ar    1  UNL1        0.0187
     21 C          65.0513   93.6471   10.6000 C.ar    1  UNL1       -0.0089
     22 C          65.8544   93.9733   11.8242 C.ar    1  UNL1        0.0333
     23 C          66.6663   95.2004   11.5327 C.3     1  UNL1        0.0438
     24 C          66.3649   95.6327   10.1283 C.3     1  UNL1        0.0096
     25 C          67.3427   96.7310   10.4240 C.3     1  UNL1        0.0007
     26 C          66.2680   96.2945    8.7857 C.3     1  UNL1        0.0007
     27 C          65.3668   94.6727    9.5519 C.3     1  UNL1        0.0279
     28 C          64.0353   90.8440   13.1245 C.2     1  UNL1        0.2697
     29 O          63.0373   89.8840   12.5481 O.2     1  UNL1       -0.2679
     30 C          64.6966   87.8561   13.4767 C.3     1  UNL1        0.1664
     31 O          63.7982   87.5748   12.3088 O.3     1  UNL1       -0.3771
     32 H          63.3393   86.7319   12.4495 H       1  UNL1        0.2109
     33 N          63.3137   83.6293   11.6909 N.pl3   1  UNL1       -0.2942
     34 H          63.6272   82.7862   11.2908 H       1  UNL1        0.1537
     35 C          61.1968   86.6776    9.1459 C.ar    1  UNL1        0.0674
     36 C          62.2471   85.7942    8.5403 C.ar    1  UNL1        0.0190
     37 C          62.9527   84.7781    9.3887 C.ar    1  UNL1        0.0357
     38 C          62.6080   84.6455   10.8426 C.ar    1  UNL1        0.1324
     39 N          61.5578   85.5288   11.4480 N.ar    1  UNL1       -0.2278
     40 C          60.8522   86.5449   10.5997 C.ar    1  UNL1        0.1147
     41 C          61.6116   89.6049    9.6546 C.3     1  UNL1        0.0229
     42 C          60.6986   89.1572    8.5519 C.3     1  UNL1        0.0889
     43 C          59.9930   90.1733    7.7035 C.3     1  UNL1        0.0921
     44 N          59.0800   89.7257    6.6008 N.3     1  UNL1       -0.2668
     45 C          58.8726   88.2621    6.3464 C.3     1  UNL1        0.0939
     46 C          59.5782   87.2460    7.1948 C.3     1  UNL1        0.1081
     47 N          60.4912   87.6936    8.2975 N.pl3   1  UNL1       -0.3051
     48 C          58.3743   90.7418    5.7523 C.3     1  UNL1        0.1173
     49 C          56.9635   90.9339    5.2806 C.3     1  UNL1        0.1606
     50 O          57.3765   92.1787    4.5525 O.3     1  UNL1       -0.3507
     51 C          58.7873   91.9866    5.0243 C.3     1  UNL1        0.1606
@<TRIPOS>BOND
     1    42    41    1
     2    42    43    1
     3    43    44    1
     4    44    48    1
     5    48    49    1
     6    49    50    1
     7    50    51    1
     8    44    45    1
     9    45    46    1
    10    46    47    1
    11    47    35    1
    12    35    36   ar
    13    36    37   ar
    14    37    38   ar
    15    38    33    1
    16    33     1    1
    17     1     2   ar
    18     2     3   ar
    19     3     9    1
    20     9    10   ar
    21    10    11   ar
    22    11    12   ar
    23    12    13   ar
    24    13    15    1
    25    15    16    1
    26    16    17    1
    27    17    18    1
    28    18    19   ar
    29    19    20   ar
    30    20    21   ar
    31    21    22   ar
    32    22    23    1
    33    23    24    1
    34    24    25    1
    35    24    26    1
    36    24    27    1
    37    19    28    1
    38    28    29    2
    39    13    14   ar
    40    14    30    1
    41    30    31    1
    42     3     4   ar
    43     4     5   ar
    44     5     6    1
    45     5     7   ar
    46     7     8    2
    47    38    39   ar
    48    39    40   ar
    49    47    42    1
    50    40    35   ar
    51    51    48    1
    52     7     1   ar
    53    14     9   ar
    54    28    15   am
    55    22    18   ar
    56    27    21    1
    57    33    34    1
    58    31    32    1
@<TRIPOS>MOLECULE
*****
 51 58 0 0 0
SMALL
GASTEIGER

@<TRIPOS>ATOM
      1 C          59.0718   88.7296    7.4680 C.ar    1  UNL1        0.1063
      2 C          59.2016   89.1643    8.8978 C.ar    1  UNL1        0.0210
      3 C          59.9412   88.3039    9.8790 C.ar    1  UNL1        0.0186
      4 C          60.5509   87.0090    9.4305 C.ar    1  UNL1        0.0784
      5 N          60.4211   86.5743    8.0007 N.ar    1  UNL1       -0.2911
      6 C          61.0309   85.2793    7.5523 C.3     1  UNL1        0.1336
      7 C          59.6816   87.4346    7.0195 C.ar    1  UNL1        0.2744
      8 O          59.5518   87.0000    5.5897 O.2     1  UNL1       -0.2656
      9 C          60.0710   88.7387   11.3088 C.ar    1  UNL1        0.0041
     10 C          58.8742   88.7117   12.2125 C.ar    1  UNL1        0.0206
     11 C          59.0039   89.1465   13.6423 C.ar    1  UNL1        0.1003
     12 N          60.3307   89.6082   14.1683 N.ar    1  UNL1       -0.2290
     13 C          61.5275   89.6351   13.2645 C.ar    1  UNL1        0.1360
     14 C          61.3977   89.2003   11.8348 C.ar    1  UNL1        0.0390
     15 N          62.8543   90.0967   13.7905 N.am    1  UNL1       -0.2373
     16 C          63.4708   89.4129   14.9745 C.3     1  UNL1        0.1244
     17 C          64.7976   89.8746   15.5005 C.3     1  UNL1        0.1277
     18 N          65.5078   91.0202   14.8423 N.ar    1  UNL1       -0.3256
     19 C          64.8912   91.7041   13.6582 C.ar    1  UNL1        0.1140
     20 C          65.8192   92.7980   13.2197 C.ar    1  UNL1        0.0187
     21 C          67.0092   92.7902   14.1328 C.ar    1  UNL1       -0.0089
     22 C          66.8167   91.6914   15.1357 C.ar    1  UNL1        0.0333
     23 C          68.0068   91.6835   16.0488 C.3     1  UNL1        0.0438
     24 C          68.9347   92.7774   15.6102 C.3     1  UNL1        0.0096
     25 C          69.7822   92.3014   16.7526 C.3     1  UNL1        0.0007
     26 C          70.0398   93.7718   15.4105 C.3     1  UNL1        0.0007
     27 C          68.3182   93.4614   14.4261 C.3     1  UNL1        0.0279
     28 C          63.5644   91.2424   13.1322 C.2     1  UNL1        0.2697
     29 O          62.9479   91.9263   11.9482 O.2     1  UNL1       -0.2679
     30 C          62.5946   89.2273   10.9310 C.3     1  UNL1        0.1664
     31 O          62.6853   90.2493    9.8367 O.3     1  UNL1       -0.3771
     32 H          61.9903   90.0832    9.1808 H       1  UNL1        0.2109
     33 N          58.3322   89.5900    6.4868 N.pl3   1  UNL1       -0.2942
     34 H          57.3478   89.5880    6.4745 H       1  UNL1        0.1537
     35 C          60.6133   92.1802    3.5993 C.ar    1  UNL1        0.0674
     36 C          59.1262   92.3297    3.7274 C.ar    1  UNL1        0.0190
     37 C          58.3659   91.4662    4.6899 C.ar    1  UNL1        0.0357
     38 C          59.0926   90.4534    5.5243 C.ar    1  UNL1        0.1324
     39 N          60.5796   90.3040    5.3961 N.ar    1  UNL1       -0.2278
     40 C          61.3400   91.1675    4.4336 C.ar    1  UNL1        0.1147
     41 C          63.3939   91.4158    2.7723 C.3     1  UNL1        0.0229
     42 C          62.7639   92.6614    2.2233 C.3     1  UNL1        0.0889
     43 C          63.5242   93.5249    1.2608 C.3     1  UNL1        0.0921
     44 N          62.8942   94.7705    0.7118 N.3     1  UNL1       -0.2668
     45 C          61.5039   95.1527    1.1252 C.3     1  UNL1        0.0939
     46 C          60.7436   94.2893    2.0877 C.3     1  UNL1        0.1081
     47 N          61.3736   93.0437    2.6368 N.pl3   1  UNL1       -0.3051
     48 C          63.6545   95.6340   -0.2508 C.3     1  UNL1        0.1173
     49 C          65.1001   95.7957   -0.6168 C.3     1  UNL1        0.1606
     50 O          64.7295   96.8552   -1.6120 O.3     1  UNL1       -0.3507
     51 C          63.2840   96.6935   -1.2460 C.3     1  UNL1        0.1606
@<TRIPOS>BOND
     1    42    41    1
     2    42    43    1
     3    43    44    1
     4    44    48    1
     5    48    49    1
     6    49    50    1
     7    50    51    1
     8    44    45    1
     9    45    46    1
    10    46    47    1
    11    47    35    1
    12    35    36   ar
    13    36    37   ar
    14    37    38   ar
    15    38    33    1
    16    33     1    1
    17     1     2   ar
    18     2     3   ar
    19     3     9    1
    20     9    10   ar
    21    10    11   ar
    22    11    12   ar
    23    12    13   ar
    24    13    15    1
    25    15    16    1
    26    16    17    1
    27    17    18    1
    28    18    19   ar
    29    19    20   ar
    30    20    21   ar
    31    21    22   ar
    32    22    23    1
    33    23    24    1
    34    24    25    1
    35    24    26    1
    36    24    27    1
    37    19    28    1
    38    28    29    2
    39    13    14   ar
    40    14    30    1
    41    30    31    1
    42     3     4   ar
    43     4     5   ar
    44     5     6    1
    45     5     7   ar
    46     7     8    2
    47    38    39   ar
    48    39    40   ar
    49    47    42    1
    50    40    35   ar
    51    51    48    1
    52     7     1   ar
    53    14     9   ar
    54    28    15   am
    55    22    18   ar
    56    27    21    1
    57    33    34    1
    58    31    32    1
