@<TRIPOS>MOLECULE
*****
 32 35 0 0 0
SMALL
GASTEIGER

@<TRIPOS>ATOM
      1 C          64.7610   88.0555   14.7391 C.3     1  UNL1        0.0328
      2 C          64.0126   88.7062   13.6137 C.ar    1  UNL1        0.0002
      3 C          64.0820   90.1929   13.4275 C.ar    1  UNL1        0.0774
      4 N          63.3336   90.8436   12.3022 N.ar    1  UNL1       -0.2457
      5 C          62.5157   90.0075   11.3629 C.ar    1  UNL1        0.0814
      6 C          61.7673   90.6582   10.2376 C.ar    1  UNL1        0.0196
      7 C          60.9495   89.8221    9.2984 C.ar    1  UNL1        0.0082
      8 C          60.8800   88.3353    9.4846 C.ar    1  UNL1        0.0347
      9 BR         60.0622   87.4992    8.5454 Br      1  UNL1       -0.0490
     10 C          61.6285   87.6846   10.6100 C.ar    1  UNL1        0.0083
     11 C          62.4463   88.5207   11.5491 C.ar    1  UNL1        0.0223
     12 C          63.1948   87.8700   12.6746 C.ar    1  UNL1        0.0526
     13 C          64.8999   91.0291   14.3667 C.ar    1  UNL1        0.0173
     14 C          64.3162   91.4774   15.6737 C.ar    1  UNL1        0.0015
     15 C          65.1341   92.3135   16.6128 C.ar    1  UNL1        0.0000
     16 C          66.5356   92.7012   16.2450 C.ar    1  UNL1        0.0000
     17 C          67.1193   92.2528   14.9380 C.ar    1  UNL1        0.0000
     18 C          66.3014   91.4168   13.9989 C.ar    1  UNL1        0.0015
     19 C          63.1253   86.3833   12.8608 C.2     1  UNL1        0.2493
     20 O          63.1945   85.7960   14.2393 O.2     1  UNL1       -0.2698
     21 N          62.9867   85.4837   11.6684 N.am    1  UNL1       -0.2786
     22 H          62.9413   85.8692   10.7636 H       1  UNL1        0.1552
     23 C          62.9173   83.9970   11.8546 C.ar    1  UNL1        0.0784
     24 C          62.4002   83.4256   13.1415 C.ar    1  UNL1        0.0170
     25 C          62.3308   81.9388   13.3277 C.ar    1  UNL1        0.0025
     26 C          62.7785   81.0234   12.2270 C.ar    1  UNL1        0.0163
     27 C          63.2956   81.5947   10.9400 C.ar    1  UNL1        0.0320
     28 C          63.3650   83.0815   10.7538 C.ar    1  UNL1        0.1535
     29 F          63.8821   83.6529    9.4669 F       1  UNL1       -0.2029
     30 C          62.7091   79.5366   12.4132 C.2     1  UNL1        0.0729
     31 O          62.6574   78.6326   11.2173 O.co2   1  UNL1       -0.5446
     32 O          62.6913   78.9539   13.7952 O.co2   1  UNL1       -0.5446
@<TRIPOS>UNITY_ATOM_ATTR
31 1
charge -1
@<TRIPOS>BOND
     1     1     2    1
     2     2     3   ar
     3     3    13    1
     4    13    14   ar
     5    14    15   ar
     6    15    16   ar
     7    16    17   ar
     8    17    18   ar
     9     3     4   ar
    10     4     5   ar
    11     5     6   ar
    12     6     7   ar
    13     7     8   ar
    14     8     9    1
    15     8    10   ar
    16    10    11   ar
    17    11    12   ar
    18    12    19    1
    19    19    20    2
    20    19    21   am
    21    21    23    1
    22    23    24   ar
    23    24    25   ar
    24    25    26   ar
    25    26    30    1
    26    30    31   ar
    27    30    32   ar
    28    26    27   ar
    29    27    28   ar
    30    28    29    1
    31    12     2   ar
    32    28    23   ar
    33    18    13   ar
    34    11     5   ar
    35    21    22    1
@<TRIPOS>MOLECULE
*****
 32 35 0 0 0
SMALL
GASTEIGER

@<TRIPOS>ATOM
      1 C          64.4527   88.1170   14.5384 C.3     1  UNL1        0.0328
      2 C          63.8357   88.9038   13.4202 C.ar    1  UNL1        0.0002
      3 C          64.0810   90.3800   13.3176 C.ar    1  UNL1        0.0774
      4 N          63.4640   91.1668   12.1994 N.ar    1  UNL1       -0.2457
      5 C          62.6018   90.4774   11.1839 C.ar    1  UNL1        0.0814
      6 C          61.9848   91.2642   10.0657 C.ar    1  UNL1        0.0196
      7 C          61.1227   90.5747    9.0503 C.ar    1  UNL1        0.0082
      8 C          60.8774   89.0985    9.1529 C.ar    1  UNL1        0.0347
      9 BR         60.0152   88.4090    8.1373 Br      1  UNL1       -0.0490
     10 C          61.4944   88.3117   10.2710 C.ar    1  UNL1        0.0083
     11 C          62.3566   89.0011   11.2865 C.ar    1  UNL1        0.0223
     12 C          62.9736   88.2143   12.4047 C.ar    1  UNL1        0.0526
     13 C          64.9432   91.0695   14.3331 C.ar    1  UNL1        0.0173
     14 C          66.4029   91.2795   14.0591 C.ar    1  UNL1        0.0015
     15 C          67.2650   91.9689   15.0746 C.ar    1  UNL1        0.0000
     16 C          66.6675   92.4483   16.3642 C.ar    1  UNL1        0.0000
     17 C          65.2078   92.2383   16.6383 C.ar    1  UNL1        0.0000
     18 C          64.3456   91.5489   15.6227 C.ar    1  UNL1        0.0015
     19 C          62.7283   86.7381   12.5074 C.2     1  UNL1        0.2493
     20 O          61.4392   86.1555   12.0087 O.2     1  UNL1       -0.2698
     21 N          63.7723   85.8444   13.1086 N.am    1  UNL1       -0.2786
     22 H          64.6185   86.2268   13.4359 H       1  UNL1        0.1552
     23 C          63.5271   84.3681   13.2113 C.ar    1  UNL1        0.0784
     24 C          64.0520   83.4452   12.1518 C.ar    1  UNL1        0.0170
     25 C          63.8068   81.9690   12.2544 C.ar    1  UNL1        0.0025
     26 C          63.0367   81.4156   13.4166 C.ar    1  UNL1        0.0163
     27 C          62.5117   82.3386   14.4762 C.ar    1  UNL1        0.0320
     28 C          62.7569   83.8148   14.3735 C.ar    1  UNL1        0.1535
     29 F          62.2320   84.7377   15.4330 F       1  UNL1       -0.2029
     30 C          62.7914   79.9394   13.5192 C.2     1  UNL1        0.0729
     31 O          62.5349   79.1338   12.2801 O.co2   1  UNL1       -0.5446
     32 O          62.8028   79.2687   14.8608 O.co2   1  UNL1       -0.5446
@<TRIPOS>UNITY_ATOM_ATTR
31 1
charge -1
@<TRIPOS>BOND
     1     1     2    1
     2     2     3   ar
     3     3    13    1
     4    13    14   ar
     5    14    15   ar
     6    15    16   ar
     7    16    17   ar
     8    17    18   ar
     9     3     4   ar
    10     4     5   ar
    11     5     6   ar
    12     6     7   ar
    13     7     8   ar
    14     8     9    1
    15     8    10   ar
    16    10    11   ar
    17    11    12   ar
    18    12    19    1
    19    19    20    2
    20    19    21   am
    21    21    23    1
    22    23    24   ar
    23    24    25   ar
    24    25    26   ar
    25    26    30    1
    26    30    31   ar
    27    30    32   ar
    28    26    27   ar
    29    27    28   ar
    30    28    29    1
    31    12     2   ar
    32    28    23   ar
    33    18    13   ar
    34    11     5   ar
    35    21    22    1
@<TRIPOS>MOLECULE
*****
 32 35 0 0 0
SMALL
GASTEIGER

@<TRIPOS>ATOM
      1 C          61.7004   84.5694   10.5712 C.3     1  UNL1        0.0328
      2 C          62.3992   85.2844   11.6895 C.ar    1  UNL1        0.0002
      3 C          62.9261   84.5102   12.8612 C.ar    1  UNL1        0.0774
      4 N          63.6248   85.2252   13.9795 N.ar    1  UNL1       -0.2457
      5 C          63.7967   86.7144   13.9261 C.ar    1  UNL1        0.0814
      6 C          64.4954   87.4293   15.0443 C.ar    1  UNL1        0.0196
      7 C          64.6672   88.9185   14.9909 C.ar    1  UNL1        0.0082
      8 C          64.1403   89.6926   13.8191 C.ar    1  UNL1        0.0347
      9 BR         64.3121   91.1819   13.7657 Br      1  UNL1       -0.0490
     10 C          63.4416   88.9777   12.7009 C.ar    1  UNL1        0.0083
     11 C          63.2697   87.4886   12.7543 C.ar    1  UNL1        0.0223
     12 C          62.5710   86.7735   11.6360 C.ar    1  UNL1        0.0526
     13 C          62.7543   83.0210   12.9146 C.ar    1  UNL1        0.0173
     14 C          62.0428   82.3892   14.0742 C.ar    1  UNL1        0.0015
     15 C          61.8710   80.9001   14.1276 C.ar    1  UNL1        0.0000
     16 C          62.4107   80.0427   13.0214 C.ar    1  UNL1        0.0000
     17 C          63.1222   80.6745   11.8619 C.ar    1  UNL1        0.0000
     18 C          63.2940   82.1636   11.8085 C.ar    1  UNL1        0.0015
     19 C          62.0441   87.5477   10.4643 C.2     1  UNL1        0.2493
     20 O          62.9834   88.3443    9.6080 O.2     1  UNL1       -0.2698
     21 N          60.5777   87.5254   10.1488 N.am    1  UNL1       -0.2786
     22 H          59.9612   87.0026   10.7108 H       1  UNL1        0.1552
     23 C          60.0508   88.2996    8.9770 C.ar    1  UNL1        0.0784
     24 C          60.1839   89.7932    8.9440 C.ar    1  UNL1        0.0170
     25 C          59.6570   90.5674    7.7722 C.ar    1  UNL1        0.0025
     26 C          58.9970   89.8479    6.6336 C.ar    1  UNL1        0.0163
     27 C          58.8638   88.3542    6.6666 C.ar    1  UNL1        0.0320
     28 C          59.3908   87.5800    7.8383 C.ar    1  UNL1        0.1535
     29 F          59.2577   86.0863    7.8714 F       1  UNL1       -0.2029
     30 C          58.4701   90.6221    5.4618 C.2     1  UNL1        0.0729
     31 O          56.9915   90.8061    5.2882 O.co2   1  UNL1       -0.5446
     32 O          59.4216   91.2123    4.4638 O.co2   1  UNL1       -0.5446
@<TRIPOS>UNITY_ATOM_ATTR
31 1
charge -1
@<TRIPOS>BOND
     1     1     2    1
     2     2     3   ar
     3     3    13    1
     4    13    14   ar
     5    14    15   ar
     6    15    16   ar
     7    16    17   ar
     8    17    18   ar
     9     3     4   ar
    10     4     5   ar
    11     5     6   ar
    12     6     7   ar
    13     7     8   ar
    14     8     9    1
    15     8    10   ar
    16    10    11   ar
    17    11    12   ar
    18    12    19    1
    19    19    20    2
    20    19    21   am
    21    21    23    1
    22    23    24   ar
    23    24    25   ar
    24    25    26   ar
    25    26    30    1
    26    30    31   ar
    27    30    32   ar
    28    26    27   ar
    29    27    28   ar
    30    28    29    1
    31    12     2   ar
    32    28    23   ar
    33    18    13   ar
    34    11     5   ar
    35    21    22    1
@<TRIPOS>MOLECULE
*****
 32 35 0 0 0
SMALL
GASTEIGER

@<TRIPOS>ATOM
      1 C          57.6024   93.0865   -0.4613 C.3     1  UNL1        0.0328
      2 C          58.7598   94.0289   -0.6114 C.ar    1  UNL1        0.0002
      3 C          58.7533   95.0565   -1.7041 C.ar    1  UNL1        0.0774
      4 N          59.9105   95.9989   -1.8543 N.ar    1  UNL1       -0.2457
      5 C          61.0744   95.9136   -0.9118 C.ar    1  UNL1        0.0814
      6 C          62.2317   96.8560   -1.0620 C.ar    1  UNL1        0.0196
      7 C          63.3955   96.7707   -0.1196 C.ar    1  UNL1        0.0082
      8 C          63.4020   95.7431    0.9731 C.ar    1  UNL1        0.0347
      9 BR         64.5658   95.6579    1.9156 Br      1  UNL1       -0.0490
     10 C          62.2447   94.8007    1.1233 C.ar    1  UNL1        0.0083
     11 C          61.0809   94.8860    0.1809 C.ar    1  UNL1        0.0223
     12 C          59.9235   93.9436    0.3310 C.ar    1  UNL1        0.0526
     13 C          57.5894   95.1417   -2.6466 C.ar    1  UNL1        0.0173
     14 C          57.6001   94.3564   -3.9245 C.ar    1  UNL1        0.0015
     15 C          56.4362   94.4416   -4.8669 C.ar    1  UNL1        0.0000
     16 C          55.2617   95.3123   -4.5314 C.ar    1  UNL1        0.0000
     17 C          55.2511   96.0977   -3.2536 C.ar    1  UNL1        0.0000
     18 C          56.4149   96.0124   -2.3112 C.ar    1  UNL1        0.0015
     19 C          59.9300   92.9160    1.4237 C.2     1  UNL1        0.2493
     20 O          60.4579   91.5381    1.1543 O.2     1  UNL1       -0.2698
     21 N          59.4086   93.2664    2.7859 N.am    1  UNL1       -0.2786
     22 H          59.0622   94.1708    2.9628 H       1  UNL1        0.1552
     23 C          59.4151   92.2387    3.8786 C.ar    1  UNL1        0.0784
     24 C          58.1296   91.8395    4.5403 C.ar    1  UNL1        0.0170
     25 C          58.1361   90.8119    5.6330 C.ar    1  UNL1        0.0025
     26 C          59.4281   90.1835    6.0639 C.ar    1  UNL1        0.0163
     27 C          60.7137   90.5827    5.4022 C.ar    1  UNL1        0.0320
     28 C          60.7073   91.6104    4.3095 C.ar    1  UNL1        0.1535
     29 F          61.9928   92.0096    3.6478 F       1  UNL1       -0.2029
     30 C          59.4346   89.1559    7.1566 C.2     1  UNL1        0.0729
     31 O          60.2557   89.3798    8.3919 O.co2   1  UNL1       -0.5446
     32 O          58.6201   87.9044    7.0141 O.co2   1  UNL1       -0.5446
@<TRIPOS>UNITY_ATOM_ATTR
31 1
charge -1
@<TRIPOS>BOND
     1     1     2    1
     2     2     3   ar
     3     3    13    1
     4    13    14   ar
     5    14    15   ar
     6    15    16   ar
     7    16    17   ar
     8    17    18   ar
     9     3     4   ar
    10     4     5   ar
    11     5     6   ar
    12     6     7   ar
    13     7     8   ar
    14     8     9    1
    15     8    10   ar
    16    10    11   ar
    17    11    12   ar
    18    12    19    1
    19    19    20    2
    20    19    21   am
    21    21    23    1
    22    23    24   ar
    23    24    25   ar
    24    25    26   ar
    25    26    30    1
    26    30    31   ar
    27    30    32   ar
    28    26    27   ar
    29    27    28   ar
    30    28    29    1
    31    12     2   ar
    32    28    23   ar
    33    18    13   ar
    34    11     5   ar
    35    21    22    1
