@<TRIPOS>MOLECULE
*****
 27 29 0 0 0
SMALL
GASTEIGER

@<TRIPOS>ATOM
      1 C          62.8992   89.1224   12.0041 C.ar    1  UNL1        0.0873
      2 C          63.1474   90.5918   11.8333 C.ar    1  UNL1        0.0194
      3 C          63.9918   91.3305   12.8289 C.ar    1  UNL1        0.0002
      4 C          64.5880   90.5998   13.9953 C.ar    1  UNL1        0.0128
      5 C          64.3398   89.1304   14.1662 C.ar    1  UNL1        0.0959
      6 N          63.4954   88.3917   13.1705 N.ar    1  UNL1       -0.2436
      7 C          60.5280   87.8993    9.1850 C.ar    1  UNL1        0.0848
      8 C          60.9828   86.5941    9.7678 C.ar    1  UNL1        0.0117
      9 C          61.9264   86.8934   10.8947 C.ar    1  UNL1        0.0086
     10 C          62.0548   88.3836   11.0084 C.ar    1  UNL1        0.0472
     11 S          61.1905   89.0053    9.9518 S.2     1  UNL1       -0.0808
     12 O          58.6034   86.9784    7.7025 O.2     1  UNL1       -0.2675
     13 C          59.5775   88.0688    8.0370 C.2     1  UNL1        0.2737
     14 N          59.6012   89.3288    7.2234 N.am    1  UNL1       -0.1930
     15 O          58.6508   89.4983    6.0754 O.3     1  UNL1       -0.2949
     16 H          60.2406   90.0445    7.4429 H       1  UNL1        0.1825
     17 H          58.0947   88.7075    5.9966 H       1  UNL1        0.2414
     18 C          65.4324   91.3385   14.9910 C.3     1  UNL1        0.0974
     19 N          65.5103   92.8357   14.9439 N.3     1  UNL1       -0.2900
     20 H          65.5194   93.1606   15.9108 H       1  UNL1        0.1239
     21 C          66.6598   93.5056   14.2512 C.3     1  UNL1        0.0959
     22 C          66.7101   93.5491   12.7527 C.ar    1  UNL1       -0.0064
     23 C          66.1980   94.7535   12.0197 C.ar    1  UNL1       -0.0029
     24 C          66.2482   94.7971   10.5212 C.ar    1  UNL1       -0.0003
     25 C          66.8106   93.6362    9.7556 C.ar    1  UNL1       -0.0000
     26 C          67.3226   92.4318   10.4885 C.ar    1  UNL1       -0.0003
     27 C          67.2724   92.3883   11.9871 C.ar    1  UNL1       -0.0029
@<TRIPOS>BOND
     1    12    13    2
     2    13    14   am
     3    14    15    1
     4    13     7    1
     5     7     8   ar
     6     8     9   ar
     7     9    10   ar
     8    10     1    1
     9     1     2   ar
    10     2     3   ar
    11     3     4   ar
    12     4    18    1
    13    18    19    1
    14    19    21    1
    15    21    22    1
    16    22    23   ar
    17    23    24   ar
    18    24    25   ar
    19    25    26   ar
    20    26    27   ar
    21     4     5   ar
    22     5     6   ar
    23    10    11   ar
    24    11     7   ar
    25     6     1   ar
    26    27    22   ar
    27    14    16    1
    28    15    17    1
    29    19    20    1
@<TRIPOS>MOLECULE
*****
 27 29 0 0 0
SMALL
GASTEIGER

@<TRIPOS>ATOM
      1 C          63.2324   90.6290   12.3814 C.ar    1  UNL1        0.0873
      2 C          63.3914   90.9872   10.9336 C.ar    1  UNL1        0.0194
      3 C          62.3694   90.5357    9.9327 C.ar    1  UNL1        0.0002
      4 C          61.1885   89.7260   10.3798 C.ar    1  UNL1        0.0128
      5 C          61.0296   89.3678   11.8276 C.ar    1  UNL1        0.0959
      6 N          62.0515   89.8193   12.8285 N.ar    1  UNL1       -0.2436
      7 C          66.3111   91.9124   14.3665 C.ar    1  UNL1        0.0848
      8 C          65.3428   91.6382   15.4788 C.ar    1  UNL1        0.0117
      9 C          64.0717   91.1241   14.8706 C.ar    1  UNL1        0.0086
     10 C          64.2544   91.0805   13.3824 C.ar    1  UNL1        0.0472
     11 S          65.6384   91.5677   13.0708 S.2     1  UNL1       -0.0808
     12 O          67.9773   93.5835   15.4534 O.2     1  UNL1       -0.2675
     13 C          67.7070   92.4388   14.5224 C.2     1  UNL1        0.2737
     14 N          68.8327   91.8206   13.7474 N.am    1  UNL1       -0.1930
     15 O          70.2286   92.3470   13.9034 O.3     1  UNL1       -0.2949
     16 H          68.6553   91.0693   13.1364 H       1  UNL1        0.1825
     17 H          70.2284   93.0811   14.5375 H       1  UNL1        0.2414
     18 C          60.1666   89.2745    9.3788 C.3     1  UNL1        0.0974
     19 N          59.9659   87.8107    9.1200 N.3     1  UNL1       -0.2900
     20 H          59.1528   87.7283    8.5097 H       1  UNL1        0.1239
     21 C          61.0626   87.0029    8.4915 C.3     1  UNL1        0.0959
     22 C          61.8231   86.0040    9.3123 C.ar    1  UNL1       -0.0064
     23 C          62.8589   85.1339    8.6642 C.ar    1  UNL1       -0.0029
     24 C          63.6195   84.1350    9.4850 C.ar    1  UNL1       -0.0003
     25 C          63.3442   84.0062   10.9540 C.ar    1  UNL1       -0.0000
     26 C          62.3084   84.8763   11.6020 C.ar    1  UNL1       -0.0003
     27 C          61.5479   85.8753   10.7812 C.ar    1  UNL1       -0.0029
@<TRIPOS>BOND
     1    12    13    2
     2    13    14   am
     3    14    15    1
     4    13     7    1
     5     7     8   ar
     6     8     9   ar
     7     9    10   ar
     8    10     1    1
     9     1     2   ar
    10     2     3   ar
    11     3     4   ar
    12     4    18    1
    13    18    19    1
    14    19    21    1
    15    21    22    1
    16    22    23   ar
    17    23    24   ar
    18    24    25   ar
    19    25    26   ar
    20    26    27   ar
    21     4     5   ar
    22     5     6   ar
    23    10    11   ar
    24    11     7   ar
    25     6     1   ar
    26    27    22   ar
    27    14    16    1
    28    15    17    1
    29    19    20    1
@<TRIPOS>MOLECULE
*****
 27 29 0 0 0
SMALL
GASTEIGER

@<TRIPOS>ATOM
      1 C          64.4632   90.1931   14.9990 C.ar    1  UNL1        0.0873
      2 C          64.6747   88.7926   14.5052 C.ar    1  UNL1        0.0194
      3 C          64.0316   87.6406   15.2188 C.ar    1  UNL1        0.0002
      4 C          63.1771   87.8891   16.4262 C.ar    1  UNL1        0.0128
      5 C          62.9655   89.2895   16.9201 C.ar    1  UNL1        0.0959
      6 N          63.6086   90.4415   16.2065 N.ar    1  UNL1       -0.2436
      7 C          65.7696   92.9036   12.5471 C.ar    1  UNL1        0.0848
      8 C          66.4222   93.3325   13.8278 C.ar    1  UNL1        0.0117
      9 C          66.0123   92.3694   14.9021 C.ar    1  UNL1        0.0086
     10 C          65.1063   91.3452   14.2854 C.ar    1  UNL1        0.0472
     11 S          64.9563   91.6753   12.8299 S.2     1  UNL1       -0.0808
     12 O          66.5593   92.8674   10.0721 O.2     1  UNL1       -0.2675
     13 C          65.9063   93.5835   11.2170 C.2     1  UNL1        0.2737
     14 N          65.3899   94.9796   11.0318 N.am    1  UNL1       -0.1930
     15 O          65.5266   95.6595    9.7017 O.3     1  UNL1       -0.2949
     16 H          64.9613   95.4496   11.7832 H       1  UNL1        0.1825
     17 H          65.9677   95.0626    9.0772 H       1  UNL1        0.2414
     18 C          62.5340   86.7370   17.1399 C.3     1  UNL1        0.0974
     19 N          61.9153   85.6191   16.3541 N.3     1  UNL1       -0.2900
     20 H          61.6147   86.0161   15.4639 H       1  UNL1        0.1239
     21 C          62.7189   84.3939   16.0325 C.3     1  UNL1        0.0959
     22 C          62.6640   83.8010   14.6558 C.ar    1  UNL1       -0.0064
     23 C          63.0510   84.6291   13.4665 C.ar    1  UNL1       -0.0029
     24 C          62.9961   84.0361   12.0898 C.ar    1  UNL1       -0.0003
     25 C          62.5542   82.6149   11.9024 C.ar    1  UNL1       -0.0000
     26 C          62.1672   81.7868   13.0917 C.ar    1  UNL1       -0.0003
     27 C          62.2221   82.3799   14.4684 C.ar    1  UNL1       -0.0029
@<TRIPOS>BOND
     1    12    13    2
     2    13    14   am
     3    14    15    1
     4    13     7    1
     5     7     8   ar
     6     8     9   ar
     7     9    10   ar
     8    10     1    1
     9     1     2   ar
    10     2     3   ar
    11     3     4   ar
    12     4    18    1
    13    18    19    1
    14    19    21    1
    15    21    22    1
    16    22    23   ar
    17    23    24   ar
    18    24    25   ar
    19    25    26   ar
    20    26    27   ar
    21     4     5   ar
    22     5     6   ar
    23    10    11   ar
    24    11     7   ar
    25     6     1   ar
    26    27    22   ar
    27    14    16    1
    28    15    17    1
    29    19    20    1
@<TRIPOS>MOLECULE
*****
 27 29 0 0 0
SMALL
GASTEIGER

@<TRIPOS>ATOM
      1 C          63.8079   87.1232   13.6842 C.ar    1  UNL1        0.0873
      2 C          64.4792   88.0428   14.6607 C.ar    1  UNL1        0.0194
      3 C          64.5157   89.5190   14.3974 C.ar    1  UNL1        0.0002
      4 C          63.8810   90.0756   13.1575 C.ar    1  UNL1        0.0128
      5 C          63.2097   89.1560   12.1810 C.ar    1  UNL1        0.0959
      6 N          63.1732   87.6798   12.4443 N.ar    1  UNL1       -0.2436
      7 C          63.3541   83.2684   13.7041 C.ar    1  UNL1        0.0848
      8 C          64.0762   83.4819   15.0015 C.ar    1  UNL1        0.0117
      9 C          64.3340   84.9519   15.1519 C.ar    1  UNL1        0.0086
     10 C          63.7713   85.6469   13.9475 C.ar    1  UNL1        0.0472
     11 S          63.1657   84.6064   13.0528 S.2     1  UNL1       -0.0808
     12 O          62.7654   81.7594   11.6727 O.2     1  UNL1       -0.2675
     13 C          62.9000   81.9486   13.1546 C.2     1  UNL1        0.2737
     14 N          62.5807   80.8178   14.0870 N.am    1  UNL1       -0.1930
     15 O          62.1267   79.4980   13.5375 O.3     1  UNL1       -0.2949
     16 H          62.6690   80.9419   15.0597 H       1  UNL1        0.1825
     17 H          62.0938   79.5450   12.5692 H       1  UNL1        0.2414
     18 C          63.9176   91.5519   12.8942 C.3     1  UNL1        0.0974
     19 N          65.1586   92.3375   13.1985 N.3     1  UNL1       -0.2900
     20 H          65.3268   92.2459   14.2004 H       1  UNL1        0.1239
     21 C          66.4479   91.9995   12.5103 C.3     1  UNL1        0.0959
     22 C          66.8686   92.7621   11.2891 C.ar    1  UNL1       -0.0064
     23 C          66.2991   94.1239   11.0221 C.ar    1  UNL1       -0.0029
     24 C          66.7198   94.8865    9.8009 C.ar    1  UNL1       -0.0003
     25 C          67.7100   94.2874    8.8467 C.ar    1  UNL1       -0.0000
     26 C          68.2795   92.9257    9.1137 C.ar    1  UNL1       -0.0003
     27 C          67.8587   92.1630   10.3349 C.ar    1  UNL1       -0.0029
@<TRIPOS>BOND
     1    12    13    2
     2    13    14   am
     3    14    15    1
     4    13     7    1
     5     7     8   ar
     6     8     9   ar
     7     9    10   ar
     8    10     1    1
     9     1     2   ar
    10     2     3   ar
    11     3     4   ar
    12     4    18    1
    13    18    19    1
    14    19    21    1
    15    21    22    1
    16    22    23   ar
    17    23    24   ar
    18    24    25   ar
    19    25    26   ar
    20    26    27   ar
    21     4     5   ar
    22     5     6   ar
    23    10    11   ar
    24    11     7   ar
    25     6     1   ar
    26    27    22   ar
    27    14    16    1
    28    15    17    1
    29    19    20    1
@<TRIPOS>MOLECULE
*****
 27 29 0 0 0
SMALL
GASTEIGER

@<TRIPOS>ATOM
      1 C          63.7046   90.9283   11.6947 C.ar    1  UNL1        0.0873
      2 C          63.2434   89.6959   12.4148 C.ar    1  UNL1        0.0194
      3 C          62.2047   88.8093   11.7943 C.ar    1  UNL1        0.0002
      4 C          61.6273   89.1551   10.4537 C.ar    1  UNL1        0.0128
      5 C          62.0885   90.3874    9.7337 C.ar    1  UNL1        0.0959
      6 N          63.1272   91.2740   10.3542 N.ar    1  UNL1       -0.2436
      7 C          66.3201   92.7667   13.8959 C.ar    1  UNL1        0.0848
      8 C          66.3632   93.5922   12.6441 C.ar    1  UNL1        0.0117
      9 C          65.3887   93.0039   11.6672 C.ar    1  UNL1        0.0086
     10 C          64.7433   91.8150   12.3152 C.ar    1  UNL1        0.0472
     11 S          65.3189   91.6684   13.6926 S.2     1  UNL1       -0.0808
     12 O          66.5063   92.8403   16.4863 O.2     1  UNL1       -0.2675
     13 C          67.1350   92.9989   15.1336 C.2     1  UNL1        0.2737
     14 N          68.5786   93.3898   15.0188 N.am    1  UNL1       -0.1930
     15 O          69.3936   93.6220   16.2565 O.3     1  UNL1       -0.2949
     16 H          68.9912   93.4939   14.1310 H       1  UNL1        0.1825
     17 H          68.8398   93.4786   17.0399 H       1  UNL1        0.2414
     18 C          60.5886   88.2684    9.8332 C.3     1  UNL1        0.0974
     19 N          60.7635   86.7788    9.8560 N.3     1  UNL1       -0.2900
     20 H          60.0111   86.3853    9.2907 H       1  UNL1        0.1239
     21 C          62.0410   86.1660    9.3636 C.3     1  UNL1        0.0959
     22 C          62.7267   85.1073   10.1753 C.ar    1  UNL1       -0.0064
     23 C          62.5987   85.1077   11.6699 C.ar    1  UNL1       -0.0029
     24 C          63.2844   84.0491   12.4816 C.ar    1  UNL1       -0.0003
     25 C          64.0982   82.9900   11.7989 C.ar    1  UNL1       -0.0000
     26 C          64.2263   82.9896   10.3044 C.ar    1  UNL1       -0.0003
     27 C          63.5405   84.0483    9.4926 C.ar    1  UNL1       -0.0029
@<TRIPOS>BOND
     1    12    13    2
     2    13    14   am
     3    14    15    1
     4    13     7    1
     5     7     8   ar
     6     8     9   ar
     7     9    10   ar
     8    10     1    1
     9     1     2   ar
    10     2     3   ar
    11     3     4   ar
    12     4    18    1
    13    18    19    1
    14    19    21    1
    15    21    22    1
    16    22    23   ar
    17    23    24   ar
    18    24    25   ar
    19    25    26   ar
    20    26    27   ar
    21     4     5   ar
    22     5     6   ar
    23    10    11   ar
    24    11     7   ar
    25     6     1   ar
    26    27    22   ar
    27    14    16    1
    28    15    17    1
    29    19    20    1
@<TRIPOS>MOLECULE
*****
 27 29 0 0 0
SMALL
GASTEIGER

@<TRIPOS>ATOM
      1 C          63.6344   90.9686   11.3425 C.ar    1  UNL1        0.0873
      2 C          62.5883   91.1012   10.2758 C.ar    1  UNL1        0.0194
      3 C          61.5116   90.0646   10.1484 C.ar    1  UNL1        0.0002
      4 C          61.4812   88.8955   11.0877 C.ar    1  UNL1        0.0128
      5 C          62.5273   88.7630   12.1544 C.ar    1  UNL1        0.0959
      6 N          63.6040   89.7995   12.2818 N.ar    1  UNL1       -0.2436
      7 C          66.4185   93.6398   10.9189 C.ar    1  UNL1        0.0848
      8 C          66.3176   93.5609   12.4135 C.ar    1  UNL1        0.0117
      9 C          65.2624   92.5507   12.7540 C.ar    1  UNL1        0.0086
     10 C          64.7112   92.0053   11.4700 C.ar    1  UNL1        0.0472
     11 S          65.4257   92.6784   10.3358 S.2     1  UNL1       -0.0808
     12 O          68.6229   93.9656    9.5830 O.2     1  UNL1       -0.2675
     13 C          67.3489   94.5249   10.1436 C.2     1  UNL1        0.2737
     14 N          67.0054   95.9691    9.9288 N.am    1  UNL1       -0.1930
     15 O          67.9358   96.8541    9.1535 O.3     1  UNL1       -0.2949
     16 H          66.1692   96.3361   10.2968 H       1  UNL1        0.1825
     17 H          68.7057   96.3396    8.8647 H       1  UNL1        0.2414
     18 C          60.4044   87.8589   10.9602 C.3     1  UNL1        0.0974
     19 N          60.7623   86.4022   10.9570 N.3     1  UNL1       -0.2900
     20 H          59.9506   85.9004   10.5969 H       1  UNL1        0.1239
     21 C          61.9495   85.9233   10.1752 C.3     1  UNL1        0.0959
     22 C          62.8017   84.8114   10.7113 C.ar    1  UNL1       -0.0064
     23 C          62.9317   84.6135   12.1925 C.ar    1  UNL1       -0.0029
     24 C          63.7839   83.5017   12.7287 C.ar    1  UNL1       -0.0003
     25 C          64.5061   82.5876   11.7836 C.ar    1  UNL1       -0.0000
     26 C          64.3760   82.7855   10.3025 C.ar    1  UNL1       -0.0003
     27 C          63.5238   83.8974    9.7663 C.ar    1  UNL1       -0.0029
@<TRIPOS>BOND
     1    12    13    2
     2    13    14   am
     3    14    15    1
     4    13     7    1
     5     7     8   ar
     6     8     9   ar
     7     9    10   ar
     8    10     1    1
     9     1     2   ar
    10     2     3   ar
    11     3     4   ar
    12     4    18    1
    13    18    19    1
    14    19    21    1
    15    21    22    1
    16    22    23   ar
    17    23    24   ar
    18    24    25   ar
    19    25    26   ar
    20    26    27   ar
    21     4     5   ar
    22     5     6   ar
    23    10    11   ar
    24    11     7   ar
    25     6     1   ar
    26    27    22   ar
    27    14    16    1
    28    15    17    1
    29    19    20    1
@<TRIPOS>MOLECULE
*****
 27 29 0 0 0
SMALL
GASTEIGER

@<TRIPOS>ATOM
      1 C          63.6573   86.2722   13.3360 C.ar    1  UNL1        0.0873
      2 C          64.3377   86.8591   14.5371 C.ar    1  UNL1        0.0194
      3 C          64.4468   88.3478   14.6845 C.ar    1  UNL1        0.0002
      4 C          63.8756   89.2496   13.6308 C.ar    1  UNL1        0.0128
      5 C          63.1953   88.6628   12.4297 C.ar    1  UNL1        0.0959
      6 N          63.0861   87.1741   12.2823 N.ar    1  UNL1       -0.2436
      7 C          62.8563   82.4778   13.4983 C.ar    1  UNL1        0.0848
      8 C          63.9041   82.5072   12.4252 C.ar    1  UNL1        0.0117
      9 C          64.3316   83.9322   12.2338 C.ar    1  UNL1        0.0086
     10 C          63.5482   84.7834   13.1886 C.ar    1  UNL1        0.0472
     11 S          62.6364   83.8845   13.9700 S.2     1  UNL1       -0.0808
     12 O          62.9468   80.0940   14.5276 O.2     1  UNL1       -0.2675
     13 C          62.1522   81.2560   14.0097 C.2     1  UNL1        0.2737
     14 N          60.6534   81.1963   14.0033 N.am    1  UNL1       -0.1930
     15 O          59.9493   79.9746   14.5147 O.3     1  UNL1       -0.2949
     16 H          60.1319   81.9590   13.6633 H       1  UNL1        0.1825
     17 H          60.6048   79.3232   14.8095 H       1  UNL1        0.2414
     18 C          63.9848   90.7384   13.7782 C.3     1  UNL1        0.0974
     19 N          64.5347   91.5651   12.6538 N.3     1  UNL1       -0.2900
     20 H          63.8978   92.3518   12.5280 H       1  UNL1        0.1239
     21 C          65.9173   92.1386   12.7511 C.3     1  UNL1        0.0959
     22 C          66.4807   92.9354   11.6120 C.ar    1  UNL1       -0.0064
     23 C          67.3618   92.2715   10.5957 C.ar    1  UNL1       -0.0029
     24 C          67.9251   93.0683    9.4566 C.ar    1  UNL1       -0.0003
     25 C          67.6073   94.5292    9.3336 C.ar    1  UNL1       -0.0000
     26 C          66.7262   95.1931   10.3499 C.ar    1  UNL1       -0.0003
     27 C          66.1629   94.3962   11.4891 C.ar    1  UNL1       -0.0029
@<TRIPOS>BOND
     1    12    13    2
     2    13    14   am
     3    14    15    1
     4    13     7    1
     5     7     8   ar
     6     8     9   ar
     7     9    10   ar
     8    10     1    1
     9     1     2   ar
    10     2     3   ar
    11     3     4   ar
    12     4    18    1
    13    18    19    1
    14    19    21    1
    15    21    22    1
    16    22    23   ar
    17    23    24   ar
    18    24    25   ar
    19    25    26   ar
    20    26    27   ar
    21     4     5   ar
    22     5     6   ar
    23    10    11   ar
    24    11     7   ar
    25     6     1   ar
    26    27    22   ar
    27    14    16    1
    28    15    17    1
    29    19    20    1
@<TRIPOS>MOLECULE
*****
 27 29 0 0 0
SMALL
GASTEIGER

@<TRIPOS>ATOM
      1 C          63.7651   86.7799   13.6230 C.ar    1  UNL1        0.0873
      2 C          64.4196   87.5855   14.7058 C.ar    1  UNL1        0.0194
      3 C          64.4758   89.0805   14.5985 C.ar    1  UNL1        0.0002
      4 C          63.8776   89.7700   13.4082 C.ar    1  UNL1        0.0128
      5 C          63.2231   88.9645   12.3253 C.ar    1  UNL1        0.0959
      6 N          63.1669   87.4694   12.4327 N.ar    1  UNL1       -0.2436
      7 C          63.3740   82.9427   13.1890 C.ar    1  UNL1        0.0848
      8 C          63.8708   83.0254   14.6020 C.ar    1  UNL1        0.0117
      9 C          64.0777   84.4729   14.9365 C.ar    1  UNL1        0.0086
     10 C          63.7089   85.2847   13.7303 C.ar    1  UNL1        0.0472
     11 S          63.2740   84.3390   12.6503 S.2     1  UNL1       -0.0808
     12 O          62.4421   80.5175   13.1766 O.2     1  UNL1       -0.2675
     13 C          63.0366   81.6844   12.4453 C.2     1  UNL1        0.2737
     14 N          63.2936   81.5932   10.9703 N.am    1  UNL1       -0.1930
     15 O          62.9561   80.3349   10.2267 O.3     1  UNL1       -0.2949
     16 H          63.6838   82.3591   10.4903 H       1  UNL1        0.1825
     17 H          62.5836   79.6851   10.8430 H       1  UNL1        0.2414
     18 C          63.9338   91.2652   13.3009 C.3     1  UNL1        0.0974
     19 N          64.6157   91.9079   12.1297 N.3     1  UNL1       -0.2900
     20 H          63.8829   92.3196   11.5518 H       1  UNL1        0.1239
     21 C          65.6425   92.9781   12.3542 C.3     1  UNL1        0.0959
     22 C          66.6684   92.8179   13.4368 C.ar    1  UNL1       -0.0064
     23 C          67.8593   91.9330   13.2165 C.ar    1  UNL1       -0.0029
     24 C          68.8852   91.7729   14.2990 C.ar    1  UNL1       -0.0003
     25 C          68.7200   92.4976   15.6020 C.ar    1  UNL1       -0.0000
     26 C          67.5291   93.3825   15.8223 C.ar    1  UNL1       -0.0003
     27 C          66.5032   93.5427   14.7396 C.ar    1  UNL1       -0.0029
@<TRIPOS>BOND
     1    12    13    2
     2    13    14   am
     3    14    15    1
     4    13     7    1
     5     7     8   ar
     6     8     9   ar
     7     9    10   ar
     8    10     1    1
     9     1     2   ar
    10     2     3   ar
    11     3     4   ar
    12     4    18    1
    13    18    19    1
    14    19    21    1
    15    21    22    1
    16    22    23   ar
    17    23    24   ar
    18    24    25   ar
    19    25    26   ar
    20    26    27   ar
    21     4     5   ar
    22     5     6   ar
    23    10    11   ar
    24    11     7   ar
    25     6     1   ar
    26    27    22   ar
    27    14    16    1
    28    15    17    1
    29    19    20    1
@<TRIPOS>MOLECULE
*****
 27 29 0 0 0
SMALL
GASTEIGER

@<TRIPOS>ATOM
      1 C          63.8537   91.2684   11.8656 C.ar    1  UNL1        0.0873
      2 C          63.4953   91.4049   10.4156 C.ar    1  UNL1        0.0194
      3 C          62.2899   90.6974    9.8712 C.ar    1  UNL1        0.0002
      4 C          61.4429   89.8534   10.7769 C.ar    1  UNL1        0.0128
      5 C          61.8014   89.7169   12.2270 C.ar    1  UNL1        0.0959
      6 N          63.0068   90.4244   12.7714 N.ar    1  UNL1       -0.2436
      7 C          66.7320   92.8420   13.9405 C.ar    1  UNL1        0.0848
      8 C          67.0963   93.2873   12.5552 C.ar    1  UNL1        0.0117
      9 C          66.0625   92.7520   11.6094 C.ar    1  UNL1        0.0086
     10 C          65.0592   91.9759   12.4101 C.ar    1  UNL1        0.0472
     11 S          65.4730   92.0315   13.8508 S.2     1  UNL1       -0.0808
     12 O          66.7978   93.1121   16.5237 O.2     1  UNL1       -0.2675
     13 C          67.4931   93.1527   15.1952 C.2     1  UNL1        0.2737
     14 N          68.9495   93.5039   15.1214 N.am    1  UNL1       -0.1930
     15 O          69.7106   93.8146   16.3761 O.3     1  UNL1       -0.2949
     16 H          69.4059   93.5305   14.2495 H       1  UNL1        0.1825
     17 H          69.1172   93.7436   17.1402 H       1  UNL1        0.2414
     18 C          60.2374   89.1459   10.2324 C.3     1  UNL1        0.0974
     19 N          59.8437   87.8058   10.7793 N.3     1  UNL1       -0.2900
     20 H          59.0296   87.4983   10.2472 H       1  UNL1        0.1239
     21 C          60.8252   86.6715   10.7633 C.3     1  UNL1        0.0959
     22 C          61.2641   86.0778    9.4576 C.ar    1  UNL1       -0.0064
     23 C          60.3193   86.0456    8.2930 C.ar    1  UNL1       -0.0029
     24 C          60.7583   85.4519    6.9873 C.ar    1  UNL1       -0.0003
     25 C          62.1420   84.8904    6.8462 C.ar    1  UNL1       -0.0000
     26 C          63.0868   84.9225    8.0109 C.ar    1  UNL1       -0.0003
     27 C          62.6478   85.5162    9.3166 C.ar    1  UNL1       -0.0029
@<TRIPOS>BOND
     1    12    13    2
     2    13    14   am
     3    14    15    1
     4    13     7    1
     5     7     8   ar
     6     8     9   ar
     7     9    10   ar
     8    10     1    1
     9     1     2   ar
    10     2     3   ar
    11     3     4   ar
    12     4    18    1
    13    18    19    1
    14    19    21    1
    15    21    22    1
    16    22    23   ar
    17    23    24   ar
    18    24    25   ar
    19    25    26   ar
    20    26    27   ar
    21     4     5   ar
    22     5     6   ar
    23    10    11   ar
    24    11     7   ar
    25     6     1   ar
    26    27    22   ar
    27    14    16    1
    28    15    17    1
    29    19    20    1
