@<TRIPOS>MOLECULE
*****
 34 37 0 0 0
SMALL
GASTEIGER

@<TRIPOS>ATOM
      1 C          64.5394   91.6380   13.5045 C.ar    1  UNL1        0.1432
      2 C          65.4475   92.4467   12.6262 C.ar    1  UNL1        0.0384
      3 C          66.7598   92.9416   13.1578 C.ar    1  UNL1        0.0215
      4 C          67.1643   92.6278   14.5678 C.ar    1  UNL1        0.1061
      5 C          66.2562   91.8190   15.4461 C.ar    1  UNL1        0.0259
      6 C          64.9438   91.3241   14.9145 C.ar    1  UNL1        0.0888
      7 C          64.0358   90.5154   15.7928 C.2     1  UNL1        0.2525
      8 O          63.3296   91.1677   16.9442 O.2     1  UNL1       -0.2698
      9 N          63.8340   89.0543   15.5197 N.am    1  UNL1       -0.2660
     10 C          64.4693   88.2686   14.4112 C.3     1  UNL1        0.1236
     11 C          63.9894   86.8511   14.5137 C.ar    1  UNL1        0.0338
     12 C          64.0854   85.4895   13.8918 C.ar    1  UNL1        0.0991
     13 N          63.2128   84.5576   14.6794 N.ar    1  UNL1       -0.2271
     14 N          62.5775   85.3434   15.7880 N.ar    1  UNL1       -0.1680
     15 C          63.0574   86.7608   15.6855 C.ar    1  UNL1        0.0981
     16 C          62.9614   88.1225   16.3074 C.3     1  UNL1        0.1414
     17 C          63.0110   83.0966   14.4064 C.ar    1  UNL1        0.1042
     18 C          64.1869   82.2259   14.0759 C.ar    1  UNL1        0.1181
     19 N          63.9851   80.7648   13.8029 N.ar    1  UNL1       -0.2384
     20 C          62.6074   80.1744   13.8603 C.ar    1  UNL1        0.1285
     21 C          61.4315   81.0451   14.1908 C.ar    1  UNL1        0.1607
     22 F          60.0537   80.4546   14.2482 F       1  UNL1       -0.2025
     23 C          61.6333   82.5061   14.4638 C.ar    1  UNL1        0.0520
     24 S          68.4767   93.1228   15.0994 S.O2    1  UNL1        0.0105
     25 C          69.7891   93.6177   15.6310 C.3     1  UNL1        0.1816
     26 O          69.1931   92.4211   13.9840 O.2     1  UNL1       -0.1686
     27 O          67.7601   93.8245   16.2149 O.2     1  UNL1       -0.1686
     28 O          63.2270   91.1430   12.9728 O.3     1  UNL1       -0.4702
     29 C          63.5684   91.5433   10.4286 C.3     1  UNL1        0.0566
     30 C          63.1260   90.6592   11.5566 C.3     1  UNL1        0.2599
     31 C          62.5825   89.2911   11.2685 C.3     1  UNL1        0.4340
     32 F          62.0390   87.9231   10.9804 F       1  UNL1       -0.1664
     33 F          63.1120   89.3757    9.8676 F       1  UNL1       -0.1664
     34 F          62.0529   89.2064   12.6694 F       1  UNL1       -0.1664
@<TRIPOS>BOND
     1    30    29    1
     2    30    28    1
     3    28     1    1
     4     1     2   ar
     5     2     3   ar
     6     3     4   ar
     7     4    24    1
     8    24    25    1
     9    24    26    2
    10    24    27    2
    11     4     5   ar
    12     5     6   ar
    13     6     7    1
    14     7     8    2
    15     7     9   am
    16     9    10    1
    17    10    11    1
    18    11    12   ar
    19    12    13   ar
    20    13    17    1
    21    17    18   ar
    22    18    19   ar
    23    19    20   ar
    24    20    21   ar
    25    21    22    1
    26    21    23   ar
    27    13    14   ar
    28    14    15   ar
    29    15    16    1
    30    30    31    1
    31    31    32    1
    32    31    33    1
    33    31    34    1
    34     6     1   ar
    35    16     9    1
    36    15    11   ar
    37    23    17   ar
@<TRIPOS>MOLECULE
*****
 34 37 0 0 0
SMALL
GASTEIGER

@<TRIPOS>ATOM
      1 C          63.9328   91.2144   13.2292 C.ar    1  UNL1        0.1432
      2 C          65.0003   92.0862   13.8211 C.ar    1  UNL1        0.0384
      3 C          65.8936   92.8916   12.9248 C.ar    1  UNL1        0.0215
      4 C          65.7195   92.8251   11.4364 C.ar    1  UNL1        0.1061
      5 C          64.6519   91.9532   10.8444 C.ar    1  UNL1        0.0259
      6 C          63.7586   91.1479   11.7408 C.ar    1  UNL1        0.0888
      7 C          62.6912   90.2761   11.1487 C.2     1  UNL1        0.2525
      8 O          61.6596   90.8691   10.2353 O.2     1  UNL1       -0.2698
      9 N          62.6553   88.8114   11.4700 N.am    1  UNL1       -0.2660
     10 C          63.6146   88.0807   12.3621 C.3     1  UNL1        0.1236
     11 C          63.2060   86.6379   12.3991 C.ar    1  UNL1        0.0338
     12 C          63.5463   85.2946   12.9732 C.ar    1  UNL1        0.0991
     13 N          62.5448   84.3033   12.4589 N.ar    1  UNL1       -0.2271
     14 N          61.5855   85.0341   11.5669 N.ar    1  UNL1       -0.1680
     15 C          61.9941   86.4769   11.5299 C.ar    1  UNL1        0.0981
     16 C          61.6538   87.8202   10.9557 C.3     1  UNL1        0.1414
     17 C          62.5089   82.8387   12.7802 C.ar    1  UNL1        0.1042
     18 C          62.2817   82.3859   14.1921 C.ar    1  UNL1        0.1181
     19 N          62.2458   80.9211   14.5135 N.ar    1  UNL1       -0.2384
     20 C          62.4371   79.9091   13.4229 C.ar    1  UNL1        0.1285
     21 C          62.6644   80.3620   12.0110 C.ar    1  UNL1        0.1607
     22 F          62.8557   79.3499   10.9204 F       1  UNL1       -0.2025
     23 C          62.7003   81.8266   11.6897 C.ar    1  UNL1        0.0520
     24 S          66.6128   93.6304   10.5401 S.O2    1  UNL1        0.0105
     25 C          67.5061   94.4357    9.6437 C.3     1  UNL1        0.1816
     26 O          65.5601   94.6950   10.4474 O.2     1  UNL1       -0.1686
     27 O          67.6655   92.5658   10.6328 O.2     1  UNL1       -0.1686
     28 O          63.0395   90.4091   14.1255 O.3     1  UNL1       -0.4702
     29 C          63.8013   91.1310   16.5022 C.3     1  UNL1        0.0566
     30 C          63.4928   90.0496   15.5094 C.3     1  UNL1        0.2599
     31 C          63.6376   88.6088   15.9006 C.3     1  UNL1        0.4340
     32 F          63.7826   87.1680   16.2916 F       1  UNL1       -0.1664
     33 F          64.8145   88.4772   14.9798 F       1  UNL1       -0.1664
     34 F          62.4608   88.7404   16.8213 F       1  UNL1       -0.1664
@<TRIPOS>BOND
     1    30    29    1
     2    30    28    1
     3    28     1    1
     4     1     2   ar
     5     2     3   ar
     6     3     4   ar
     7     4    24    1
     8    24    25    1
     9    24    26    2
    10    24    27    2
    11     4     5   ar
    12     5     6   ar
    13     6     7    1
    14     7     8    2
    15     7     9   am
    16     9    10    1
    17    10    11    1
    18    11    12   ar
    19    12    13   ar
    20    13    17    1
    21    17    18   ar
    22    18    19   ar
    23    19    20   ar
    24    20    21   ar
    25    21    22    1
    26    21    23   ar
    27    13    14   ar
    28    14    15   ar
    29    15    16    1
    30    30    31    1
    31    31    32    1
    32    31    33    1
    33    31    34    1
    34     6     1   ar
    35    16     9    1
    36    15    11   ar
    37    23    17   ar
@<TRIPOS>MOLECULE
*****
 34 37 0 0 0
SMALL
GASTEIGER

@<TRIPOS>ATOM
      1 C          63.5899   90.5455   13.6147 C.ar    1  UNL1        0.1432
      2 C          64.1397   91.6157   12.7189 C.ar    1  UNL1        0.0384
      3 C          65.5007   92.1885   12.9825 C.ar    1  UNL1        0.0215
      4 C          66.3121   91.6911   14.1419 C.ar    1  UNL1        0.1061
      5 C          65.7623   90.6209   15.0378 C.ar    1  UNL1        0.0259
      6 C          64.4012   90.0481   14.7742 C.ar    1  UNL1        0.0888
      7 C          63.8516   88.9779   15.6701 C.2     1  UNL1        0.2525
      8 O          63.4836   89.3023   17.0875 O.2     1  UNL1       -0.2698
      9 N          63.6699   87.5833   15.1484 N.am    1  UNL1       -0.2660
     10 C          63.9918   87.1119   13.7613 C.3     1  UNL1        0.1236
     11 C          63.6553   85.6525   13.6780 C.ar    1  UNL1        0.0338
     12 C          63.6463   84.4592   12.7692 C.ar    1  UNL1        0.0991
     13 N          63.1109   83.2911   13.5431 N.ar    1  UNL1       -0.2271
     14 N          62.7890   83.7626   14.9303 N.ar    1  UNL1       -0.1680
     15 C          63.1255   85.2220   15.0136 C.ar    1  UNL1        0.0981
     16 C          63.1345   86.4153   15.9224 C.3     1  UNL1        0.1414
     17 C          62.9293   81.8966   13.0215 C.ar    1  UNL1        0.1042
     18 C          62.6103   80.7774   13.9680 C.ar    1  UNL1        0.1181
     19 N          62.4286   79.3828   13.4464 N.ar    1  UNL1       -0.2384
     20 C          62.5660   79.1073   11.9784 C.ar    1  UNL1        0.1285
     21 C          62.8849   80.2265   11.0318 C.ar    1  UNL1        0.1607
     22 F          63.0223   79.9509    9.5637 F       1  UNL1       -0.2025
     23 C          63.0666   81.6210   11.5534 C.ar    1  UNL1        0.0520
     24 S          67.6731   92.2639   14.4055 S.O2    1  UNL1        0.0105
     25 C          69.0342   92.8366   14.6691 C.3     1  UNL1        0.1816
     26 O          67.3031   92.4817   15.8427 O.2     1  UNL1       -0.1686
     27 O          68.0431   92.0460   12.9682 O.2     1  UNL1       -0.1686
     28 O          62.2289   89.9728   13.3511 O.3     1  UNL1       -0.4702
     29 C          62.6182   88.8246   11.0533 C.3     1  UNL1        0.0566
     30 C          61.7888   89.7025   11.9429 C.3     1  UNL1        0.2599
     31 C          60.5193   90.3102   11.4242 C.3     1  UNL1        0.4340
     32 F          59.2497   90.9179   10.9057 F       1  UNL1       -0.1664
     33 F          59.7778   89.7768   12.6142 F       1  UNL1       -0.1664
     34 F          61.2606   90.8436   10.2343 F       1  UNL1       -0.1664
@<TRIPOS>BOND
     1    30    29    1
     2    30    28    1
     3    28     1    1
     4     1     2   ar
     5     2     3   ar
     6     3     4   ar
     7     4    24    1
     8    24    25    1
     9    24    26    2
    10    24    27    2
    11     4     5   ar
    12     5     6   ar
    13     6     7    1
    14     7     8    2
    15     7     9   am
    16     9    10    1
    17    10    11    1
    18    11    12   ar
    19    12    13   ar
    20    13    17    1
    21    17    18   ar
    22    18    19   ar
    23    19    20   ar
    24    20    21   ar
    25    21    22    1
    26    21    23   ar
    27    13    14   ar
    28    14    15   ar
    29    15    16    1
    30    30    31    1
    31    31    32    1
    32    31    33    1
    33    31    34    1
    34     6     1   ar
    35    16     9    1
    36    15    11   ar
    37    23    17   ar
@<TRIPOS>MOLECULE
*****
 34 37 0 0 0
SMALL
GASTEIGER

@<TRIPOS>ATOM
      1 C          65.5414   92.3529   11.9791 C.ar    1  UNL1        0.1432
      2 C          66.4632   93.1580   12.8463 C.ar    1  UNL1        0.0384
      3 C          66.2869   93.1528   14.3359 C.ar    1  UNL1        0.0215
      4 C          65.1888   92.3424   14.9584 C.ar    1  UNL1        0.1061
      5 C          64.2670   91.5373   14.0911 C.ar    1  UNL1        0.0259
      6 C          64.4432   91.5425   12.6015 C.ar    1  UNL1        0.0888
      7 C          63.5214   90.7373   11.7344 C.2     1  UNL1        0.2525
      8 O          62.7826   91.3984   10.6087 O.2     1  UNL1       -0.2698
      9 N          63.3384   89.2712   11.9929 N.am    1  UNL1       -0.2660
     10 C          64.0065   88.4767   13.0757 C.3     1  UNL1        0.1236
     11 C          63.5362   87.0566   12.9660 C.ar    1  UNL1        0.0338
     12 C          63.6584   85.6879   13.5674 C.ar    1  UNL1        0.0991
     13 N          62.7751   84.7587   12.7886 N.ar    1  UNL1       -0.2271
     14 N          62.1070   85.5533   11.7057 N.ar    1  UNL1       -0.1680
     15 C          62.5774   86.9734   11.8154 C.ar    1  UNL1        0.0981
     16 C          62.4551   88.3421   11.2140 C.3     1  UNL1        0.1414
     17 C          62.5921   83.2926   13.0471 C.ar    1  UNL1        0.1042
     18 C          62.2115   82.8143   14.4169 C.ar    1  UNL1        0.1181
     19 N          62.0284   81.3481   14.6754 N.ar    1  UNL1       -0.2384
     20 C          62.2260   80.3602   13.5641 C.ar    1  UNL1        0.1285
     21 C          62.6067   80.8385   12.1943 C.ar    1  UNL1        0.1607
     22 F          62.8043   79.8505   11.0829 F       1  UNL1       -0.2025
     23 C          62.7897   82.3046   11.9358 C.ar    1  UNL1        0.0520
     24 S          65.0125   92.3372   16.4480 S.O2    1  UNL1        0.0105
     25 C          64.8362   92.3319   17.9376 C.3     1  UNL1        0.1816
     26 O          66.4468   92.7414   16.6191 O.2     1  UNL1       -0.1686
     27 O          63.5781   91.9329   16.2767 O.2     1  UNL1       -0.1686
     28 O          65.7177   92.3582   10.4896 O.3     1  UNL1       -0.4702
     29 C          66.4495   94.7546    9.8030 C.3     1  UNL1        0.0566
     30 C          66.7173   93.2797    9.8558 C.3     1  UNL1        0.2599
     31 C          67.9846   92.7262    9.2750 C.3     1  UNL1        0.4340
     32 F          69.2520   92.1726    8.6942 F       1  UNL1       -0.1664
     33 F          68.0277   91.6887   10.3576 F       1  UNL1       -0.1664
     34 F          67.9417   93.7636    8.1924 F       1  UNL1       -0.1664
@<TRIPOS>BOND
     1    30    29    1
     2    30    28    1
     3    28     1    1
     4     1     2   ar
     5     2     3   ar
     6     3     4   ar
     7     4    24    1
     8    24    25    1
     9    24    26    2
    10    24    27    2
    11     4     5   ar
    12     5     6   ar
    13     6     7    1
    14     7     8    2
    15     7     9   am
    16     9    10    1
    17    10    11    1
    18    11    12   ar
    19    12    13   ar
    20    13    17    1
    21    17    18   ar
    22    18    19   ar
    23    19    20   ar
    24    20    21   ar
    25    21    22    1
    26    21    23   ar
    27    13    14   ar
    28    14    15   ar
    29    15    16    1
    30    30    31    1
    31    31    32    1
    32    31    33    1
    33    31    34    1
    34     6     1   ar
    35    16     9    1
    36    15    11   ar
    37    23    17   ar
@<TRIPOS>MOLECULE
*****
 34 37 0 0 0
SMALL
GASTEIGER

@<TRIPOS>ATOM
      1 C          62.9767   90.6378   11.8059 C.ar    1  UNL1        0.1432
      2 C          62.8602   91.4098   10.5251 C.ar    1  UNL1        0.0384
      3 C          63.9637   92.3342   10.1035 C.ar    1  UNL1        0.0215
      4 C          65.1838   92.4866   10.9627 C.ar    1  UNL1        0.1061
      5 C          65.3003   91.7145   12.2435 C.ar    1  UNL1        0.0259
      6 C          64.1968   90.7901   12.6651 C.ar    1  UNL1        0.0888
      7 C          64.3134   90.0182   13.9459 C.2     1  UNL1        0.2525
      8 O          64.7155   90.7187   15.2099 O.2     1  UNL1       -0.2698
      9 N          64.0278   88.5457   13.9628 N.am    1  UNL1       -0.2660
     10 C          63.6177   87.7136   12.7841 C.3     1  UNL1        0.1236
     11 C          63.4386   86.3005   13.2542 C.ar    1  UNL1        0.0338
     12 C          63.0745   84.9128   12.8162 C.ar    1  UNL1        0.0991
     13 N          63.1489   84.0139   14.0147 N.ar    1  UNL1       -0.2271
     14 N          63.5591   84.8461   15.1935 N.ar    1  UNL1       -0.1680
     15 C          63.7381   86.2592   14.7234 C.ar    1  UNL1        0.0981
     16 C          64.1022   87.6469   15.1613 C.3     1  UNL1        0.1414
     17 C          62.8634   82.5415   14.0316 C.ar    1  UNL1        0.1042
     18 C          63.9915   81.5576   13.9358 C.ar    1  UNL1        0.1181
     19 N          63.7060   80.0850   13.9526 N.ar    1  UNL1       -0.2384
     20 C          62.2923   79.5965   14.0654 C.ar    1  UNL1        0.1285
     21 C          61.1641   80.5805   14.1613 C.ar    1  UNL1        0.1607
     22 F          59.7504   80.0918   14.2741 F       1  UNL1       -0.2025
     23 C          61.4496   82.0528   14.1444 C.ar    1  UNL1        0.0520
     24 S          66.2873   93.4109   10.5410 S.O2    1  UNL1        0.0105
     25 C          67.3909   94.3353   10.1194 C.3     1  UNL1        0.1816
     26 O          67.2472   92.2584   10.5265 O.2     1  UNL1       -0.1686
     27 O          65.3274   94.5635   10.5556 O.2     1  UNL1       -0.1686
     28 O          61.8732   89.7134   12.2275 O.3     1  UNL1       -0.4702
     29 C          59.5043   90.5417   11.5550 C.3     1  UNL1        0.0566
     30 C          60.6421   89.5799   11.3810 C.3     1  UNL1        0.2599
     31 C          60.5489   88.4846   10.3604 C.3     1  UNL1        0.4340
     32 F          60.4557   87.3892    9.3400 F       1  UNL1       -0.1664
     33 F          60.5228   87.4634   11.4589 F       1  UNL1       -0.1664
     34 F          60.5749   89.5057    9.2620 F       1  UNL1       -0.1664
@<TRIPOS>BOND
     1    30    29    1
     2    30    28    1
     3    28     1    1
     4     1     2   ar
     5     2     3   ar
     6     3     4   ar
     7     4    24    1
     8    24    25    1
     9    24    26    2
    10    24    27    2
    11     4     5   ar
    12     5     6   ar
    13     6     7    1
    14     7     8    2
    15     7     9   am
    16     9    10    1
    17    10    11    1
    18    11    12   ar
    19    12    13   ar
    20    13    17    1
    21    17    18   ar
    22    18    19   ar
    23    19    20   ar
    24    20    21   ar
    25    21    22    1
    26    21    23   ar
    27    13    14   ar
    28    14    15   ar
    29    15    16    1
    30    30    31    1
    31    31    32    1
    32    31    33    1
    33    31    34    1
    34     6     1   ar
    35    16     9    1
    36    15    11   ar
    37    23    17   ar
@<TRIPOS>MOLECULE
*****
 34 37 0 0 0
SMALL
GASTEIGER

@<TRIPOS>ATOM
      1 C          63.8644   84.9492   13.5195 C.ar    1  UNL1        0.1432
      2 C          64.5963   85.5136   14.7009 C.ar    1  UNL1        0.0384
      3 C          64.6240   86.9960   14.9280 C.ar    1  UNL1        0.0215
      4 C          63.9197   87.9142   13.9736 C.ar    1  UNL1        0.1061
      5 C          63.1877   87.3499   12.7922 C.ar    1  UNL1        0.0259
      6 C          63.1600   85.8674   12.5651 C.ar    1  UNL1        0.0888
      7 C          62.4281   85.3032   11.3836 C.2     1  UNL1        0.2525
      8 O          62.3615   83.8183   11.1818 O.2     1  UNL1       -0.2698
      9 N          61.7627   86.2238   10.4040 N.am    1  UNL1       -0.2660
     10 C          61.7446   87.7221   10.4743 C.3     1  UNL1        0.1236
     11 C          60.9693   88.2320    9.2957 C.ar    1  UNL1        0.0338
     12 C          60.4790   89.4731    8.6108 C.ar    1  UNL1        0.0991
     13 N          59.7149   89.0572    7.3888 N.ar    1  UNL1       -0.2271
     14 N          59.7330   87.5589    7.3186 N.ar    1  UNL1       -0.1680
     15 C          60.5083   87.0489    8.4971 C.ar    1  UNL1        0.0981
     16 C          60.9986   85.8078    9.1820 C.3     1  UNL1        0.1414
     17 C          59.0495   89.9778    6.4092 C.ar    1  UNL1        0.1042
     18 C          57.5545   89.9909    6.2886 C.ar    1  UNL1        0.1181
     19 N          56.8890   90.9115    5.3089 N.ar    1  UNL1       -0.2384
     20 C          57.7187   91.8190    4.4499 C.ar    1  UNL1        0.1285
     21 C          59.2139   91.8059    4.5705 C.ar    1  UNL1        0.1607
     22 F          60.0436   92.7134    3.7113 F       1  UNL1       -0.2025
     23 C          59.8792   90.8853    5.5501 C.ar    1  UNL1        0.0520
     24 S          63.9473   89.3967   14.2007 S.O2    1  UNL1        0.0105
     25 C          63.9750   90.8791   14.4278 C.3     1  UNL1        0.1816
     26 O          63.9486   89.1695   15.6834 O.2     1  UNL1       -0.1686
     27 O          63.9460   89.6238   12.7180 O.2     1  UNL1       -0.1686
     28 O          63.8368   83.4668   13.2924 O.3     1  UNL1       -0.4702
     29 C          62.2175   83.1511   15.2995 C.3     1  UNL1        0.0566
     30 C          62.8895   82.6058   14.0743 C.3     1  UNL1        0.2599
     31 C          62.6142   81.1996   13.6309 C.3     1  UNL1        0.4340
     32 F          62.3390   79.7933   13.1875 F       1  UNL1       -0.1664
     33 F          63.9993   81.1077   13.0624 F       1  UNL1       -0.1664
     34 F          61.2291   81.2913   14.1994 F       1  UNL1       -0.1664
@<TRIPOS>BOND
     1    30    29    1
     2    30    28    1
     3    28     1    1
     4     1     2   ar
     5     2     3   ar
     6     3     4   ar
     7     4    24    1
     8    24    25    1
     9    24    26    2
    10    24    27    2
    11     4     5   ar
    12     5     6   ar
    13     6     7    1
    14     7     8    2
    15     7     9   am
    16     9    10    1
    17    10    11    1
    18    11    12   ar
    19    12    13   ar
    20    13    17    1
    21    17    18   ar
    22    18    19   ar
    23    19    20   ar
    24    20    21   ar
    25    21    22    1
    26    21    23   ar
    27    13    14   ar
    28    14    15   ar
    29    15    16    1
    30    30    31    1
    31    31    32    1
    32    31    33    1
    33    31    34    1
    34     6     1   ar
    35    16     9    1
    36    15    11   ar
    37    23    17   ar
