@<TRIPOS>MOLECULE
*****
 25 28 0 0 0
SMALL
GASTEIGER

@<TRIPOS>ATOM
      1 C          65.3248   92.6004   12.5079 C.ar    1  UNL1        0.1536
      2 C          66.0008   92.3068   13.8143 C.ar    1  UNL1        0.1332
      3 N          65.5996   91.1017   14.6122 N.ar    1  UNL1       -0.2392
      4 C          64.5224   90.1901   14.1036 C.ar    1  UNL1        0.1043
      5 C          63.8464   90.4836   12.7972 C.ar    1  UNL1        0.1364
      6 N          64.2476   91.6887   11.9993 N.ar    1  UNL1       -0.2243
      7 C          64.1212   88.9849   14.9016 C.ar    1  UNL1        0.0498
      8 C          64.4510   87.6100   14.4006 C.ar    1  UNL1        0.0245
      9 C          64.0499   86.4048   15.1985 C.ar    1  UNL1        0.0991
     10 N          63.3189   86.5745   16.4974 N.ar    1  UNL1       -0.2400
     11 C          62.9891   87.9494   16.9983 C.ar    1  UNL1        0.1285
     12 C          63.3903   89.1546   16.2003 C.ar    1  UNL1        0.1606
     13 F          63.0606   90.5295   16.7013 F       1  UNL1       -0.2025
     14 C          62.7693   89.5720   12.2886 C.ar    1  UNL1        0.1854
     15 C          61.2933   89.8335   12.3453 C.ar    1  UNL1        0.1412
     16 N          60.5908   88.6619   11.7258 N.ar    1  UNL1       -0.2025
     17 C          61.6325   87.6763   11.2861 C.ar    1  UNL1        0.2852
     18 O          62.9789   88.2387   11.6340 O.2     1  UNL1       -0.4295
     19 O          67.1547   92.2972   10.1500 O.2     1  UNL1       -0.2747
     20 C          66.6409   93.6539   10.5310 C.2     1  UNL1        0.2267
     21 N          65.7260   93.8055   11.7099 N.am    1  UNL1       -0.2681
     22 H          65.3888   94.6960   11.9600 H       1  UNL1        0.1563
     23 C          67.0421   94.8591    9.7331 C.3     1  UNL1        0.0769
     24 C          67.1968   96.3464    9.6153 C.3     1  UNL1        0.0096
     25 C          67.5822   95.4592    8.4689 C.3     1  UNL1        0.0096
@<TRIPOS>BOND
     1    19    20    2
     2    20    21   am
     3    21     1    1
     4     1     2   ar
     5     2     3   ar
     6     3     4   ar
     7     4     7    1
     8     7     8   ar
     9     8     9   ar
    10     9    10   ar
    11    10    11   ar
    12    11    12   ar
    13    12    13    1
    14     4     5   ar
    15     5    14    1
    16    14    15   ar
    17    15    16   ar
    18    16    17   ar
    19    17    18   ar
    20     5     6   ar
    21    20    23    1
    22    23    24    1
    23    24    25    1
    24     6     1   ar
    25    25    23    1
    26    12     7   ar
    27    18    14   ar
    28    21    22    1
@<TRIPOS>MOLECULE
*****
 25 28 0 0 0
SMALL
GASTEIGER

@<TRIPOS>ATOM
      1 C          62.6174   90.5429   10.9825 C.ar    1  UNL1        0.1536
      2 C          62.7235   89.9080   12.3374 C.ar    1  UNL1        0.1332
      3 N          63.8146   90.3259   13.2780 N.ar    1  UNL1       -0.2392
      4 C          64.7996   91.3786   12.8638 C.ar    1  UNL1        0.1043
      5 C          64.6935   92.0135   11.5089 C.ar    1  UNL1        0.1364
      6 N          63.6024   91.5956   10.5683 N.ar    1  UNL1       -0.2243
      7 C          65.8907   91.7965   13.8045 C.ar    1  UNL1        0.0498
      8 C          67.3045   91.9010   13.3142 C.ar    1  UNL1        0.0245
      9 C          68.3956   92.3188   14.2548 C.ar    1  UNL1        0.0991
     10 N          68.0730   92.6322   15.6858 N.ar    1  UNL1       -0.2400
     11 C          66.6593   92.5277   16.1762 C.ar    1  UNL1        0.1285
     12 C          65.5681   92.1098   15.2354 C.ar    1  UNL1        0.1606
     13 F          64.1544   92.0054   15.7258 F       1  UNL1       -0.2025
     14 C          65.6784   93.0662   11.0947 C.ar    1  UNL1        0.1854
     15 C          66.8620   92.8616   10.1963 C.ar    1  UNL1        0.1412
     16 N          67.5679   94.1773   10.0525 N.ar    1  UNL1       -0.2025
     17 C          66.8205   95.1951   10.8621 C.ar    1  UNL1        0.2852
     18 O          65.6528   94.5084   11.5062 O.2     1  UNL1       -0.4295
     19 O          62.3522   87.6654   10.1763 O.2     1  UNL1       -0.2747
     20 C          61.3936   88.6863    9.6387 C.2     1  UNL1        0.2267
     21 N          61.5262   90.1250   10.0418 N.am    1  UNL1       -0.2681
     22 H          60.8971   90.7951    9.6890 H       1  UNL1        0.1563
     23 C          60.3025   88.2684    8.6980 C.3     1  UNL1        0.0769
     24 C          59.3891   88.5772    7.5490 C.3     1  UNL1        0.0096
     25 C          59.3261   87.2360    8.2178 C.3     1  UNL1        0.0096
@<TRIPOS>BOND
     1    19    20    2
     2    20    21   am
     3    21     1    1
     4     1     2   ar
     5     2     3   ar
     6     3     4   ar
     7     4     7    1
     8     7     8   ar
     9     8     9   ar
    10     9    10   ar
    11    10    11   ar
    12    11    12   ar
    13    12    13    1
    14     4     5   ar
    15     5    14    1
    16    14    15   ar
    17    15    16   ar
    18    16    17   ar
    19    17    18   ar
    20     5     6   ar
    21    20    23    1
    22    23    24    1
    23    24    25    1
    24     6     1   ar
    25    25    23    1
    26    12     7   ar
    27    18    14   ar
    28    21    22    1
@<TRIPOS>MOLECULE
*****
 25 28 0 0 0
SMALL
GASTEIGER

@<TRIPOS>ATOM
      1 C          64.4428   89.7850   14.1754 C.ar    1  UNL1        0.1536
      2 C          63.8055   90.1885   12.8789 C.ar    1  UNL1        0.1332
      3 N          64.3609   91.3420   12.0972 N.ar    1  UNL1       -0.2392
      4 C          65.5536   92.0919   12.6121 C.ar    1  UNL1        0.1043
      5 C          66.1909   91.6884   13.9086 C.ar    1  UNL1        0.1364
      6 N          65.6355   90.5350   14.6902 N.ar    1  UNL1       -0.2243
      7 C          66.1090   93.2454   11.8303 C.ar    1  UNL1        0.0498
      8 C          65.8705   94.6512   12.2961 C.ar    1  UNL1        0.0245
      9 C          66.4259   95.8046   11.5144 C.ar    1  UNL1        0.0991
     10 N          67.2198   95.5524   10.2669 N.ar    1  UNL1       -0.2400
     11 C          67.4583   94.1466    9.8011 C.ar    1  UNL1        0.1285
     12 C          66.9029   92.9931   10.5829 C.ar    1  UNL1        0.1606
     13 F          67.1414   91.5873   10.1171 F       1  UNL1       -0.2025
     14 C          67.3836   92.4383   14.4234 C.ar    1  UNL1        0.1854
     15 C          68.8145   92.1790   14.0554 C.ar    1  UNL1        0.1412
     16 N          69.6701   93.1597   14.8012 N.ar    1  UNL1       -0.2025
     17 C          68.7680   94.0251   15.6302 C.ar    1  UNL1        0.2852
     18 O          67.3550   93.5793   15.3967 O.2     1  UNL1       -0.4295
     19 O          63.3140   90.2365   16.9180 O.2     1  UNL1       -0.2747
     20 C          63.3231   88.8573   16.3284 C.2     1  UNL1        0.2267
     21 N          63.8875   88.6315   14.9571 N.am    1  UNL1       -0.2681
     22 H          63.8934   87.7263   14.5702 H       1  UNL1        0.1563
     23 C          62.7677   87.7038   17.1102 C.3     1  UNL1        0.0769
     24 C          61.8733   86.5026   17.1950 C.3     1  UNL1        0.0096
     25 C          62.7002   86.9071   18.3793 C.3     1  UNL1        0.0096
@<TRIPOS>BOND
     1    19    20    2
     2    20    21   am
     3    21     1    1
     4     1     2   ar
     5     2     3   ar
     6     3     4   ar
     7     4     7    1
     8     7     8   ar
     9     8     9   ar
    10     9    10   ar
    11    10    11   ar
    12    11    12   ar
    13    12    13    1
    14     4     5   ar
    15     5    14    1
    16    14    15   ar
    17    15    16   ar
    18    16    17   ar
    19    17    18   ar
    20     5     6   ar
    21    20    23    1
    22    23    24    1
    23    24    25    1
    24     6     1   ar
    25    25    23    1
    26    12     7   ar
    27    18    14   ar
    28    21    22    1
@<TRIPOS>MOLECULE
*****
 25 28 0 0 0
SMALL
GASTEIGER

@<TRIPOS>ATOM
      1 C          63.6112   85.4527   13.3498 C.ar    1  UNL1        0.1536
      2 C          64.3905   85.6842   14.6104 C.ar    1  UNL1        0.1332
      3 N          64.6731   87.0833   15.0712 N.ar    1  UNL1       -0.2392
      4 C          64.1764   88.2511   14.2714 C.ar    1  UNL1        0.1043
      5 C          63.3972   88.0197   13.0108 C.ar    1  UNL1        0.1364
      6 N          63.1146   86.6205   12.5500 N.ar    1  UNL1       -0.2243
      7 C          64.4590   89.6503   14.7323 C.ar    1  UNL1        0.0498
      8 C          65.5197   90.4642   14.0521 C.ar    1  UNL1        0.0245
      9 C          65.8023   91.8633   14.5129 C.ar    1  UNL1        0.0991
     10 N          65.0243   92.4488   15.6540 N.ar    1  UNL1       -0.2400
     11 C          63.9636   91.6349   16.3342 C.ar    1  UNL1        0.1285
     12 C          63.6810   90.2357   15.8733 C.ar    1  UNL1        0.1606
     13 F          62.6203   89.4219   16.5536 F       1  UNL1       -0.2025
     14 C          62.9005   89.1874   12.2110 C.ar    1  UNL1        0.1854
     15 C          61.4666   89.5932   12.0404 C.ar    1  UNL1        0.1412
     16 N          61.4304   90.8110   11.1653 N.ar    1  UNL1       -0.2025
     17 C          62.8420   91.1579   10.7951 C.ar    1  UNL1        0.2852
     18 O          63.7506   90.1544   11.4414 O.2     1  UNL1       -0.4295
     19 O          62.4639   83.4464   15.2624 O.2     1  UNL1       -0.2747
     20 C          62.7550   83.0503   13.8452 C.2     1  UNL1        0.2267
     21 N          63.3286   84.0535   12.8889 N.am    1  UNL1       -0.2681
     22 H          63.5196   83.7936   11.9588 H       1  UNL1        0.1563
     23 C          62.4724   81.6511   13.3844 C.3     1  UNL1        0.0769
     24 C          62.6968   80.5348   12.4079 C.3     1  UNL1        0.0096
     25 C          61.7585   80.3440   13.5625 C.3     1  UNL1        0.0096
@<TRIPOS>BOND
     1    19    20    2
     2    20    21   am
     3    21     1    1
     4     1     2   ar
     5     2     3   ar
     6     3     4   ar
     7     4     7    1
     8     7     8   ar
     9     8     9   ar
    10     9    10   ar
    11    10    11   ar
    12    11    12   ar
    13    12    13    1
    14     4     5   ar
    15     5    14    1
    16    14    15   ar
    17    15    16   ar
    18    16    17   ar
    19    17    18   ar
    20     5     6   ar
    21    20    23    1
    22    23    24    1
    23    24    25    1
    24     6     1   ar
    25    25    23    1
    26    12     7   ar
    27    18    14   ar
    28    21    22    1
@<TRIPOS>MOLECULE
*****
 25 28 0 0 0
SMALL
GASTEIGER

@<TRIPOS>ATOM
      1 C          62.5565   90.7496   10.6502 C.ar    1  UNL1        0.1536
      2 C          63.6063   91.7803   10.3576 C.ar    1  UNL1        0.1332
      3 N          64.6233   92.1325   11.4024 N.ar    1  UNL1       -0.2392
      4 C          64.5906   91.4539   12.7397 C.ar    1  UNL1        0.1043
      5 C          63.5408   90.4232   13.0323 C.ar    1  UNL1        0.1364
      6 N          62.5238   90.0710   11.9875 N.ar    1  UNL1       -0.2243
      7 C          65.6077   91.8061   13.7845 C.ar    1  UNL1        0.0498
      8 C          65.1706   92.0897   15.1912 C.ar    1  UNL1        0.0245
      9 C          66.1876   92.4418   16.2359 C.ar    1  UNL1        0.0991
     10 N          67.6417   92.5105   15.8741 N.ar    1  UNL1       -0.2400
     11 C          68.0788   92.2270   14.4675 C.ar    1  UNL1        0.1285
     12 C          67.0617   91.8747   13.4227 C.ar    1  UNL1        0.1606
     13 F          67.4988   91.5912   12.0161 F       1  UNL1       -0.2025
     14 C          63.5081   89.7446   14.3696 C.ar    1  UNL1        0.1854
     15 C          64.1324   88.4220   14.7027 C.ar    1  UNL1        0.1412
     16 N          63.8555   88.1294   16.1476 N.ar    1  UNL1       -0.2025
     17 C          63.0601   89.2713   16.7075 C.ar    1  UNL1        0.2852
     18 O          62.8454   90.2695   15.6087 O.2     1  UNL1       -0.4295
     19 O          61.7670   87.8859   10.2304 O.2     1  UNL1       -0.2747
     20 C          61.1447   88.9656    9.3955 C.2     1  UNL1        0.2267
     21 N          61.5394   90.3974    9.6053 N.am    1  UNL1       -0.2681
     22 H          61.1310   91.1060    9.0573 H       1  UNL1        0.1563
     23 C          60.1276   88.6134    8.3507 C.3     1  UNL1        0.0769
     24 C          59.1269   87.6501    7.7846 C.3     1  UNL1        0.0096
     25 C          59.3668   88.9667    7.1072 C.3     1  UNL1        0.0096
@<TRIPOS>BOND
     1    19    20    2
     2    20    21   am
     3    21     1    1
     4     1     2   ar
     5     2     3   ar
     6     3     4   ar
     7     4     7    1
     8     7     8   ar
     9     8     9   ar
    10     9    10   ar
    11    10    11   ar
    12    11    12   ar
    13    12    13    1
    14     4     5   ar
    15     5    14    1
    16    14    15   ar
    17    15    16   ar
    18    16    17   ar
    19    17    18   ar
    20     5     6   ar
    21    20    23    1
    22    23    24    1
    23    24    25    1
    24     6     1   ar
    25    25    23    1
    26    12     7   ar
    27    18    14   ar
    28    21    22    1
@<TRIPOS>MOLECULE
*****
 25 28 0 0 0
SMALL
GASTEIGER

@<TRIPOS>ATOM
      1 C          63.0017   84.8100   12.8316 C.ar    1  UNL1        0.1536
      2 C          63.9420   85.0992   13.9639 C.ar    1  UNL1        0.1332
      3 N          64.2633   86.5184   14.3280 N.ar    1  UNL1       -0.2392
      4 C          63.6443   87.6483   13.5598 C.ar    1  UNL1        0.1043
      5 C          62.7040   87.3591   12.4276 C.ar    1  UNL1        0.1364
      6 N          62.3827   85.9399   12.0634 N.ar    1  UNL1       -0.2243
      7 C          63.9656   89.0676   13.9240 C.ar    1  UNL1        0.0498
      8 C          64.4731   90.0141   12.8768 C.ar    1  UNL1        0.0245
      9 C          64.7944   91.4333   13.2409 C.ar    1  UNL1        0.0991
     10 N          64.6082   91.9061   14.6523 N.ar    1  UNL1       -0.2400
     11 C          64.1007   90.9596   15.6995 C.ar    1  UNL1        0.1285
     12 C          63.7794   89.5403   15.3353 C.ar    1  UNL1        0.1606
     13 F          63.2719   88.5939   16.3825 F       1  UNL1       -0.2025
     14 C          62.0850   88.4890   11.6594 C.ar    1  UNL1        0.1854
     15 C          62.3586   88.8346   10.2256 C.ar    1  UNL1        0.1412
     16 N          61.5264   90.0309    9.8702 N.ar    1  UNL1       -0.2025
     17 C          60.7384   90.4247   11.0843 C.ar    1  UNL1        0.2852
     18 O          61.0837   89.4717   12.1901 O.2     1  UNL1       -0.4295
     19 O          64.7227   83.3402   10.8623 O.2     1  UNL1       -0.2747
     20 C          63.5409   82.6558   11.4828 C.2     1  UNL1        0.2267
     21 N          62.6804   83.3907   12.4675 N.am    1  UNL1       -0.2681
     22 H          61.9048   82.9415   12.8747 H       1  UNL1        0.1563
     23 C          63.2196   81.2366   11.1187 C.3     1  UNL1        0.0769
     24 C          63.0964   80.1568   10.0849 C.3     1  UNL1        0.0096
     25 C          62.7862   79.8583   11.5217 C.3     1  UNL1        0.0096
@<TRIPOS>BOND
     1    19    20    2
     2    20    21   am
     3    21     1    1
     4     1     2   ar
     5     2     3   ar
     6     3     4   ar
     7     4     7    1
     8     7     8   ar
     9     8     9   ar
    10     9    10   ar
    11    10    11   ar
    12    11    12   ar
    13    12    13    1
    14     4     5   ar
    15     5    14    1
    16    14    15   ar
    17    15    16   ar
    18    16    17   ar
    19    17    18   ar
    20     5     6   ar
    21    20    23    1
    22    23    24    1
    23    24    25    1
    24     6     1   ar
    25    25    23    1
    26    12     7   ar
    27    18    14   ar
    28    21    22    1
@<TRIPOS>MOLECULE
*****
 25 28 0 0 0
SMALL
GASTEIGER

@<TRIPOS>ATOM
      1 C          59.3454   88.2485    7.7941 C.ar    1  UNL1        0.1536
      2 C          59.5048   86.8028    7.4272 C.ar    1  UNL1        0.1332
      3 N          60.3916   85.9142    8.2480 N.ar    1  UNL1       -0.2392
      4 C          61.1190   86.4712    9.4357 C.ar    1  UNL1        0.1043
      5 C          60.9597   87.9168    9.8026 C.ar    1  UNL1        0.1364
      6 N          60.0728   88.8055    8.9817 N.ar    1  UNL1       -0.2243
      7 C          62.0059   85.5824   10.2565 C.ar    1  UNL1        0.0498
      8 C          61.8016   85.4821   11.7392 C.ar    1  UNL1        0.0245
      9 C          62.6884   84.5934   12.5600 C.ar    1  UNL1        0.0991
     10 N          63.7796   83.8050   11.8982 N.ar    1  UNL1       -0.2400
     11 C          63.9839   83.9054   10.4156 C.ar    1  UNL1        0.1285
     12 C          63.0970   84.7941    9.5947 C.ar    1  UNL1        0.1606
     13 F          63.3013   84.8945    8.1121 F       1  UNL1       -0.2025
     14 C          61.6871   88.4738   10.9902 C.ar    1  UNL1        0.1854
     15 C          61.1222   89.4239   12.0042 C.ar    1  UNL1        0.1412
     16 N          62.1931   89.7159   13.0131 N.ar    1  UNL1       -0.2025
     17 C          63.4200   88.9462   12.6227 C.ar    1  UNL1        0.2852
     18 O          63.1072   88.1786   11.3725 O.2     1  UNL1       -0.4295
     19 O          60.5524   90.2009    5.8625 O.2     1  UNL1       -0.2747
     20 C          59.0620   90.1134    6.0075 C.2     1  UNL1        0.2267
     21 N          58.4585   89.1372    6.9732 N.am    1  UNL1       -0.2681
     22 H          57.4803   89.0798    7.0684 H       1  UNL1        0.1563
     23 C          58.1752   91.0021    5.1866 C.3     1  UNL1        0.0769
     24 C          56.8048   91.4942    4.8261 C.3     1  UNL1        0.0096
     25 C          58.0094   92.0493    4.1256 C.3     1  UNL1        0.0096
@<TRIPOS>BOND
     1    19    20    2
     2    20    21   am
     3    21     1    1
     4     1     2   ar
     5     2     3   ar
     6     3     4   ar
     7     4     7    1
     8     7     8   ar
     9     8     9   ar
    10     9    10   ar
    11    10    11   ar
    12    11    12   ar
    13    12    13    1
    14     4     5   ar
    15     5    14    1
    16    14    15   ar
    17    15    16   ar
    18    16    17   ar
    19    17    18   ar
    20     5     6   ar
    21    20    23    1
    22    23    24    1
    23    24    25    1
    24     6     1   ar
    25    25    23    1
    26    12     7   ar
    27    18    14   ar
    28    21    22    1
@<TRIPOS>MOLECULE
*****
 25 28 0 0 0
SMALL
GASTEIGER

@<TRIPOS>ATOM
      1 C          63.7761   89.4142   13.1517 C.ar    1  UNL1        0.1536
      2 C          63.1005   90.2068   12.0723 C.ar    1  UNL1        0.1332
      3 N          62.3634   89.5007   10.9731 N.ar    1  UNL1       -0.2392
      4 C          62.3019   88.0021   10.9534 C.ar    1  UNL1        0.1043
      5 C          62.9776   87.2095   12.0329 C.ar    1  UNL1        0.1364
      6 N          63.7147   87.9156   13.1320 N.ar    1  UNL1       -0.2243
      7 C          61.5648   87.2961    9.8542 C.ar    1  UNL1        0.0498
      8 C          62.3161   86.4463    8.8727 C.ar    1  UNL1        0.0245
      9 C          61.5791   85.7403    7.7735 C.ar    1  UNL1        0.0991
     10 N          60.0906   85.8840    7.6558 N.ar    1  UNL1       -0.2400
     11 C          59.3392   86.7338    8.6373 C.ar    1  UNL1        0.1285
     12 C          60.0764   87.4399    9.7366 C.ar    1  UNL1        0.1606
     13 F          59.3250   88.2896   10.7181 F       1  UNL1       -0.2025
     14 C          62.9161   85.7109   12.0132 C.ar    1  UNL1        0.1854
     15 C          62.4193   84.8342   13.1243 C.ar    1  UNL1        0.1412
     16 N          62.5368   83.4073   12.6768 N.ar    1  UNL1       -0.2025
     17 C          63.1063   83.4022   11.2891 C.ar    1  UNL1        0.2852
     18 O          63.3407   84.8259   10.8790 O.2     1  UNL1       -0.4295
     19 O          65.4788   91.8028   12.5227 O.2     1  UNL1       -0.2747
     20 C          65.3646   91.3145   13.9364 C.2     1  UNL1        0.2267
     21 N          64.5133   90.1202   14.2509 N.am    1  UNL1       -0.2681
     22 H          64.4384   89.7997   15.1788 H       1  UNL1        0.1563
     23 C          66.1018   92.0205   15.0357 C.3     1  UNL1        0.0769
     24 C          67.3407   92.6970   15.5430 C.3     1  UNL1        0.0096
     25 C          66.1396   92.5669   16.4321 C.3     1  UNL1        0.0096
@<TRIPOS>BOND
     1    19    20    2
     2    20    21   am
     3    21     1    1
     4     1     2   ar
     5     2     3   ar
     6     3     4   ar
     7     4     7    1
     8     7     8   ar
     9     8     9   ar
    10     9    10   ar
    11    10    11   ar
    12    11    12   ar
    13    12    13    1
    14     4     5   ar
    15     5    14    1
    16    14    15   ar
    17    15    16   ar
    18    16    17   ar
    19    17    18   ar
    20     5     6   ar
    21    20    23    1
    22    23    24    1
    23    24    25    1
    24     6     1   ar
    25    25    23    1
    26    12     7   ar
    27    18    14   ar
    28    21    22    1
@<TRIPOS>MOLECULE
*****
 25 28 0 0 0
SMALL
GASTEIGER

@<TRIPOS>ATOM
      1 C          64.2953   87.8422   14.2127 C.ar    1  UNL1        0.1536
      2 C          64.7683   86.6179   14.9388 C.ar    1  UNL1        0.1332
      3 N          64.4308   85.2553   14.4103 N.ar    1  UNL1       -0.2392
      4 C          63.6203   85.1170   13.1557 C.ar    1  UNL1        0.1043
      5 C          63.1473   86.3414   12.4296 C.ar    1  UNL1        0.1364
      6 N          63.4848   87.7040   12.9581 N.ar    1  UNL1       -0.2243
      7 C          63.2828   83.7543   12.6273 C.ar    1  UNL1        0.0498
      8 C          63.8453   83.2990   11.3133 C.ar    1  UNL1        0.0245
      9 C          63.5078   81.9364   10.7848 C.ar    1  UNL1        0.0991
     10 N          62.6079   81.0290   11.5703 N.ar    1  UNL1       -0.2400
     11 C          62.0454   81.4843   12.8842 C.ar    1  UNL1        0.1285
     12 C          62.3829   82.8470   13.4127 C.ar    1  UNL1        0.1606
     13 F          61.8205   83.3023   14.7266 F       1  UNL1       -0.2025
     14 C          62.3368   86.2031   11.1751 C.ar    1  UNL1        0.1854
     15 C          60.9305   86.6855   10.9762 C.ar    1  UNL1        0.1412
     16 N          60.5149   86.3387    9.5773 N.ar    1  UNL1       -0.2025
     17 C          61.6644   85.6419    8.9115 C.ar    1  UNL1        0.2852
     18 O          62.7904   85.5581    9.8990 O.2     1  UNL1       -0.4295
     19 O          62.3869   89.2550   16.0463 O.2     1  UNL1       -0.2747
     20 C          63.6786   89.9113   15.6580 C.2     1  UNL1        0.2267
     21 N          64.6328   89.2049   14.7412 N.am    1  UNL1       -0.2681
     22 H          65.4806   89.6357   14.4864 H       1  UNL1        0.1563
     23 C          64.0161   91.2740   16.1865 C.3     1  UNL1        0.0769
     24 C          65.0233   92.3562   16.4398 C.3     1  UNL1        0.0096
     25 C          63.5934   92.5519   16.8485 C.3     1  UNL1        0.0096
@<TRIPOS>BOND
     1    19    20    2
     2    20    21   am
     3    21     1    1
     4     1     2   ar
     5     2     3   ar
     6     3     4   ar
     7     4     7    1
     8     7     8   ar
     9     8     9   ar
    10     9    10   ar
    11    10    11   ar
    12    11    12   ar
    13    12    13    1
    14     4     5   ar
    15     5    14    1
    16    14    15   ar
    17    15    16   ar
    18    16    17   ar
    19    17    18   ar
    20     5     6   ar
    21    20    23    1
    22    23    24    1
    23    24    25    1
    24     6     1   ar
    25    25    23    1
    26    12     7   ar
    27    18    14   ar
    28    21    22    1
