@<TRIPOS>MOLECULE
*****
 36 40 0 0 0
SMALL
GASTEIGER

@<TRIPOS>ATOM
      1 C          60.2874   92.7927    2.1247 C.ar    1  UNL1        0.1982
      2 N          61.7190   92.9205    2.5538 N.ar    1  UNL1       -0.2122
      3 C          62.5420   93.2260    1.3375 C.ar    1  UNL1        0.1190
      4 C          64.0126   93.4565    1.1527 C.ar    1  UNL1        0.1194
      5 N          64.5602   93.7481   -0.2130 N.ar    1  UNL1       -0.2422
      6 C          63.6372   93.8091   -1.3939 C.ar    1  UNL1        0.0830
      7 C          64.1848   94.1006   -2.7596 C.ar    1  UNL1        0.0223
      8 C          63.2619   94.1616   -3.9404 C.ar    1  UNL1        0.0394
      9 C          61.7912   93.9311   -3.7555 C.ar    1  UNL1        0.1389
     10 C          61.2436   93.6396   -2.3898 C.ar    1  UNL1        0.0399
     11 C          62.1666   93.5786   -1.2090 C.ar    1  UNL1        0.0381
     12 C          61.6190   93.2870    0.1567 C.ar    1  UNL1        0.0832
     13 N          60.2256   93.0192    0.6432 N.ar    1  UNL1       -0.2961
     14 C          63.8094   94.4532   -5.3061 C.ar    1  UNL1        0.0526
     15 C          64.7092   93.5574   -6.1050 C.ar    1  UNL1        0.1007
     16 C          65.2193   92.2129   -5.6784 C.3     1  UNL1        0.0557
     17 N          65.0093   94.2423   -7.4053 N.ar    1  UNL1       -0.0817
     18 O          64.2949   95.5613   -7.4101 O.2     1  UNL1       -0.3581
     19 C          63.5534   95.6916   -6.1127 C.ar    1  UNL1        0.1545
     20 C          62.7049   96.8560   -5.6953 C.3     1  UNL1        0.0754
     21 N          59.1222   92.4913    3.0199 N.pl3   1  UNL1       -0.3019
     22 H          58.2308   92.3354    2.6320 H       1  UNL1        0.1497
     23 C          59.3150   92.4274    4.5061 C.3     1  UNL1        0.1217
     24 C          58.7123   91.3014    5.2928 C.3     1  UNL1        0.1634
     25 C          59.3755   89.3497    6.8743 C.3     1  UNL1        0.1742
     26 O          59.5124   90.0613    5.5609 O.3     1  UNL1       -0.3493
     27 O          60.8682   93.9921   -4.9364 O.3     1  UNL1       -0.4714
     28 C          59.4775   94.5302   -4.7742 C.3     1  UNL1        0.2525
     29 C          58.9877   92.9841   -0.2032 C.3     1  UNL1        0.1281
     30 C          58.4630   91.6738   -0.7107 C.3     1  UNL1        0.0311
     31 C          58.2745   94.2595   -0.5422 C.ar    1  UNL1        0.0796
     32 C          56.8951   94.2141   -1.1298 C.ar    1  UNL1        0.0166
     33 C          56.1819   95.4893   -1.4688 C.ar    1  UNL1        0.0029
     34 C          56.8481   96.8101   -1.2202 C.ar    1  UNL1        0.0207
     35 C          58.2275   96.8555   -0.6327 C.ar    1  UNL1        0.0985
     36 N          58.9407   95.5803   -0.2937 N.ar    1  UNL1       -0.2463
@<TRIPOS>BOND
     1    25    26    1
     2    26    24    1
     3    24    23    1
     4    23    21    1
     5    21     1    1
     6     1     2   ar
     7     2     3   ar
     8     3     4   ar
     9     4     5   ar
    10     5     6   ar
    11     6     7   ar
    12     7     8   ar
    13     8    14    1
    14    14    15   ar
    15    15    16    1
    16    15    17   ar
    17    17    18   ar
    18    18    19   ar
    19    19    20    1
    20     8     9   ar
    21     9    27    1
    22    27    28    1
    23     9    10   ar
    24    10    11   ar
    25    11    12   ar
    26    12    13   ar
    27    13    29    1
    28    29    30    1
    29    29    31    1
    30    31    32   ar
    31    32    33   ar
    32    33    34   ar
    33    34    35   ar
    34    35    36   ar
    35    13     1   ar
    36    36    31   ar
    37    12     3   ar
    38    11     6   ar
    39    19    14   ar
    40    21    22    1
@<TRIPOS>MOLECULE
*****
 36 40 0 0 0
SMALL
GASTEIGER

@<TRIPOS>ATOM
      1 C          63.4552   90.1603   16.0652 C.ar    1  UNL1        0.1982
      2 N          63.3081   89.3223   17.3005 N.ar    1  UNL1       -0.2122
      3 C          63.2050   87.8869   16.8774 C.ar    1  UNL1        0.1190
      4 C          63.0460   86.6183   17.6617 C.ar    1  UNL1        0.1194
      5 N          62.9705   85.3005   16.9492 N.ar    1  UNL1       -0.2422
      6 C          63.0539   85.2514   15.4523 C.ar    1  UNL1        0.0830
      7 C          62.9783   83.9336   14.7397 C.ar    1  UNL1        0.0223
      8 C          63.0617   83.8845   13.2429 C.ar    1  UNL1        0.0394
      9 C          63.2207   85.1532   12.4585 C.ar    1  UNL1        0.1389
     10 C          63.2963   86.4710   13.1711 C.ar    1  UNL1        0.0399
     11 C          63.2129   86.5201   14.6680 C.ar    1  UNL1        0.0381
     12 C          63.2885   87.8378   15.3805 C.ar    1  UNL1        0.0832
     13 N          63.4431   89.2429   14.8786 N.ar    1  UNL1       -0.2961
     14 C          62.9861   82.5667   12.5303 C.ar    1  UNL1        0.0526
     15 C          63.7349   82.1934   11.2853 C.ar    1  UNL1        0.1007
     16 C          64.6906   83.0723   10.5343 C.3     1  UNL1        0.0557
     17 N          63.3600   80.7869   10.9231 N.ar    1  UNL1       -0.0817
     18 O          62.3796   80.2909   11.9444 O.2     1  UNL1       -0.3581
     19 C          62.1486   81.3910   12.9376 C.ar    1  UNL1        0.1545
     20 C          61.2395   81.3265   14.1290 C.3     1  UNL1        0.0754
     21 N          63.5906   91.6536   16.0238 N.pl3   1  UNL1       -0.3019
     22 H          62.8456   92.2065   15.6943 H       1  UNL1        0.1497
     23 C          64.8611   92.3046   16.4843 C.3     1  UNL1        0.1217
     24 C          66.0061   92.4731   15.5302 C.3     1  UNL1        0.1634
     25 C          66.4469   93.5042   13.1865 C.3     1  UNL1        0.1742
     26 O          66.0593   93.6690   14.6262 O.3     1  UNL1       -0.3493
     27 O          63.3042   85.1041   10.9617 O.3     1  UNL1       -0.4714
     28 C          62.1773   85.6406   10.1297 C.3     1  UNL1        0.2525
     29 C          63.5642   89.6576   13.4422 C.3     1  UNL1        0.1281
     30 C          64.8659   90.1926   12.9232 C.3     1  UNL1        0.0311
     31 C          62.3836   89.5373   12.5246 C.ar    1  UNL1        0.0796
     32 C          62.5943   89.2994   11.0586 C.ar    1  UNL1        0.0166
     33 C          61.4138   89.1791   10.1411 C.ar    1  UNL1        0.0029
     34 C          60.0226   89.2966   10.6895 C.ar    1  UNL1        0.0207
     35 C          59.8120   89.5345   12.1555 C.ar    1  UNL1        0.0985
     36 N          60.9925   89.6548   13.0730 N.ar    1  UNL1       -0.2463
@<TRIPOS>BOND
     1    25    26    1
     2    26    24    1
     3    24    23    1
     4    23    21    1
     5    21     1    1
     6     1     2   ar
     7     2     3   ar
     8     3     4   ar
     9     4     5   ar
    10     5     6   ar
    11     6     7   ar
    12     7     8   ar
    13     8    14    1
    14    14    15   ar
    15    15    16    1
    16    15    17   ar
    17    17    18   ar
    18    18    19   ar
    19    19    20    1
    20     8     9   ar
    21     9    27    1
    22    27    28    1
    23     9    10   ar
    24    10    11   ar
    25    11    12   ar
    26    12    13   ar
    27    13    29    1
    28    29    30    1
    29    29    31    1
    30    31    32   ar
    31    32    33   ar
    32    33    34   ar
    33    34    35   ar
    34    35    36   ar
    35    13     1   ar
    36    36    31   ar
    37    12     3   ar
    38    11     6   ar
    39    19    14   ar
    40    21    22    1
@<TRIPOS>MOLECULE
*****
 36 40 0 0 0
SMALL
GASTEIGER

@<TRIPOS>ATOM
      1 C          60.3581   88.4096    8.1782 C.ar    1  UNL1        0.1982
      2 N          60.7441   87.3515    7.1875 N.ar    1  UNL1       -0.2122
      3 C          61.3953   86.2284    7.9387 C.ar    1  UNL1        0.1190
      4 C          61.9755   84.9214    7.4859 C.ar    1  UNL1        0.1194
      5 N          62.5721   83.9782    8.4881 N.ar    1  UNL1       -0.2422
      6 C          62.5885   84.3421    9.9432 C.ar    1  UNL1        0.0830
      7 C          63.1852   83.3989   10.9454 C.ar    1  UNL1        0.0223
      8 C          63.2016   83.7627   12.4006 C.ar    1  UNL1        0.0394
      9 C          62.6215   85.0698   12.8534 C.ar    1  UNL1        0.1389
     10 C          62.0249   86.0130   11.8512 C.ar    1  UNL1        0.0399
     11 C          62.0084   85.6491   10.3961 C.ar    1  UNL1        0.0381
     12 C          61.4118   86.5923    9.3938 C.ar    1  UNL1        0.0832
     13 N          60.7708   87.9403    9.5418 N.ar    1  UNL1       -0.2961
     14 C          63.7982   82.8196   13.4028 C.ar    1  UNL1        0.0526
     15 C          63.4397   81.3732   13.5747 C.ar    1  UNL1        0.1007
     16 C          62.4216   80.6161   12.7746 C.3     1  UNL1        0.0557
     17 N          64.2780   80.8169   14.6873 N.ar    1  UNL1       -0.0817
     18 O          65.1546   81.9195   15.2029 O.2     1  UNL1       -0.3581
     19 C          64.8581   83.1572   14.4091 C.ar    1  UNL1        0.1545
     20 C          65.5075   84.4972   14.5898 C.3     1  UNL1        0.0754
     21 N          59.6787   89.7087    7.8610 N.pl3   1  UNL1       -0.3019
     22 H          59.7168   90.4538    8.5034 H       1  UNL1        0.1497
     23 C          58.9413   89.8727    6.5651 C.3     1  UNL1        0.1217
     24 C          59.4963   90.7641    5.4940 C.3     1  UNL1        0.1634
     25 C          57.1040   91.5655    4.8734 C.3     1  UNL1        0.1742
     26 O          58.5927   91.7163    4.7680 O.3     1  UNL1       -0.3493
     27 O          62.6379   85.4337   14.3085 O.3     1  UNL1       -0.4714
     28 C          61.8405   84.6293   15.2918 C.3     1  UNL1        0.2525
     29 C          60.5765   88.6878   10.8277 C.3     1  UNL1        0.1281
     30 C          59.2719   88.5913   11.5616 C.3     1  UNL1        0.0311
     31 C          61.6869   89.5318   11.3797 C.ar    1  UNL1        0.0796
     32 C          62.5010   90.3943   10.4614 C.ar    1  UNL1        0.0166
     33 C          63.6114   91.2383   11.0133 C.ar    1  UNL1        0.0029
     34 C          63.9077   91.2199   12.4836 C.ar    1  UNL1        0.0207
     35 C          63.0936   90.3574   13.4020 C.ar    1  UNL1        0.0985
     36 N          61.9832   89.5134   12.8501 N.ar    1  UNL1       -0.2463
@<TRIPOS>BOND
     1    25    26    1
     2    26    24    1
     3    24    23    1
     4    23    21    1
     5    21     1    1
     6     1     2   ar
     7     2     3   ar
     8     3     4   ar
     9     4     5   ar
    10     5     6   ar
    11     6     7   ar
    12     7     8   ar
    13     8    14    1
    14    14    15   ar
    15    15    16    1
    16    15    17   ar
    17    17    18   ar
    18    18    19   ar
    19    19    20    1
    20     8     9   ar
    21     9    27    1
    22    27    28    1
    23     9    10   ar
    24    10    11   ar
    25    11    12   ar
    26    12    13   ar
    27    13    29    1
    28    29    30    1
    29    29    31    1
    30    31    32   ar
    31    32    33   ar
    32    33    34   ar
    33    34    35   ar
    34    35    36   ar
    35    13     1   ar
    36    36    31   ar
    37    12     3   ar
    38    11     6   ar
    39    19    14   ar
    40    21    22    1
@<TRIPOS>MOLECULE
*****
 36 40 0 0 0
SMALL
GASTEIGER

@<TRIPOS>ATOM
      1 C          65.6393   92.3269   14.7746 C.ar    1  UNL1        0.1982
      2 N          66.1916   92.8717   13.4908 N.ar    1  UNL1       -0.2122
      3 C          65.4214   92.2600   12.3582 C.ar    1  UNL1        0.1190
      4 C          65.5236   92.4241   10.8708 C.ar    1  UNL1        0.1194
      5 N          64.5975   91.6653    9.9672 N.ar    1  UNL1       -0.2422
      6 C          63.5693   90.7424   10.5510 C.ar    1  UNL1        0.0830
      7 C          62.6431   89.9836    9.6473 C.ar    1  UNL1        0.0223
      8 C          61.6149   89.0607   10.2312 C.ar    1  UNL1        0.0394
      9 C          61.5127   88.8966   11.7187 C.ar    1  UNL1        0.1389
     10 C          62.4388   89.6554   12.6223 C.ar    1  UNL1        0.0399
     11 C          63.4671   90.5783   12.0385 C.ar    1  UNL1        0.0381
     12 C          64.3932   91.3371   12.9421 C.ar    1  UNL1        0.0832
     13 N          64.5278   91.3785   14.4355 N.ar    1  UNL1       -0.2961
     14 C          60.6888   88.3019    9.3276 C.ar    1  UNL1        0.0526
     15 C          60.5503   86.8099    9.2588 C.ar    1  UNL1        0.1007
     16 C          61.3136   85.8147   10.0815 C.3     1  UNL1        0.0557
     17 N          59.5145   86.4878    8.2228 N.ar    1  UNL1       -0.0817
     18 O          59.0128   87.7808    7.6513 O.2     1  UNL1       -0.3581
     19 C          59.7385   88.9019    8.3341 C.ar    1  UNL1        0.1545
     20 C          59.5476   90.3660    8.0698 C.3     1  UNL1        0.0754
     21 N          66.1150   92.6703   16.1551 N.pl3   1  UNL1       -0.3019
     22 H          65.4963   92.6089   16.9184 H       1  UNL1        0.1497
     23 C          67.5334   93.1071   16.3727 C.3     1  UNL1        0.1217
     24 C          68.6634   92.2851   15.8272 C.3     1  UNL1        0.1634
     25 C          69.2653   91.7860   13.3496 C.3     1  UNL1        0.1742
     26 O          69.3334   92.6871   14.5468 O.3     1  UNL1       -0.3493
     27 O          60.4844   87.9737   12.3026 O.3     1  UNL1       -0.4714
     28 C          59.1056   88.4816   12.6040 C.3     1  UNL1        0.2525
     29 C          63.6969   90.6068   15.4173 C.3     1  UNL1        0.1281
     30 C          62.7686   91.3310   16.3467 C.3     1  UNL1        0.0311
     31 C          63.7942   89.1108   15.4698 C.ar    1  UNL1        0.0796
     32 C          64.5849   88.3737   14.4299 C.ar    1  UNL1        0.0166
     33 C          64.6823   86.8778   14.4823 C.ar    1  UNL1        0.0029
     34 C          63.9889   86.1190   15.5748 C.ar    1  UNL1        0.0207
     35 C          63.1982   86.8561   16.6147 C.ar    1  UNL1        0.0985
     36 N          63.1009   88.3520   16.5623 N.ar    1  UNL1       -0.2463
@<TRIPOS>BOND
     1    25    26    1
     2    26    24    1
     3    24    23    1
     4    23    21    1
     5    21     1    1
     6     1     2   ar
     7     2     3   ar
     8     3     4   ar
     9     4     5   ar
    10     5     6   ar
    11     6     7   ar
    12     7     8   ar
    13     8    14    1
    14    14    15   ar
    15    15    16    1
    16    15    17   ar
    17    17    18   ar
    18    18    19   ar
    19    19    20    1
    20     8     9   ar
    21     9    27    1
    22    27    28    1
    23     9    10   ar
    24    10    11   ar
    25    11    12   ar
    26    12    13   ar
    27    13    29    1
    28    29    30    1
    29    29    31    1
    30    31    32   ar
    31    32    33   ar
    32    33    34   ar
    33    34    35   ar
    34    35    36   ar
    35    13     1   ar
    36    36    31   ar
    37    12     3   ar
    38    11     6   ar
    39    19    14   ar
    40    21    22    1
@<TRIPOS>MOLECULE
*****
 36 40 0 0 0
SMALL
GASTEIGER

@<TRIPOS>ATOM
      1 C          60.7357   87.3298    9.2970 C.ar    1  UNL1        0.1982
      2 N          60.7829   88.6584    8.6023 N.ar    1  UNL1       -0.2122
      3 C          61.6402   89.5787    9.4197 C.ar    1  UNL1        0.1190
      4 C          62.0437   91.0104    9.2264 C.ar    1  UNL1        0.1194
      5 N          62.9299   91.6822   10.2329 N.ar    1  UNL1       -0.2422
      6 C          63.4127   90.9224   11.4327 C.ar    1  UNL1        0.0830
      7 C          64.2989   91.5943   12.4393 C.ar    1  UNL1        0.0223
      8 C          64.7817   90.8345   13.6391 C.ar    1  UNL1        0.0394
      9 C          64.3782   89.4027   13.8324 C.ar    1  UNL1        0.1389
     10 C          63.4920   88.7309   12.8258 C.ar    1  UNL1        0.0399
     11 C          63.0092   89.4907   11.6260 C.ar    1  UNL1        0.0381
     12 C          62.1230   88.8188   10.6195 C.ar    1  UNL1        0.0832
     13 N          61.5640   87.4290   10.5437 N.ar    1  UNL1       -0.2961
     14 C          65.6679   91.5064   14.6457 C.ar    1  UNL1        0.0526
     15 C          67.1039   91.8883   14.4403 C.ar    1  UNL1        0.1007
     16 C          67.9057   91.6655   13.1924 C.3     1  UNL1        0.0557
     17 N          67.5972   92.5323   15.7020 N.ar    1  UNL1       -0.0817
     18 O          66.4661   92.5483   16.6872 O.2     1  UNL1       -0.3581
     19 C          65.2738   91.9142   16.0343 C.ar    1  UNL1        0.1545
     20 C          63.9243   91.7218   16.6602 C.3     1  UNL1        0.0754
     21 N          59.9911   86.1152    8.8275 N.pl3   1  UNL1       -0.3019
     22 H          59.4822   85.5706    9.4706 H       1  UNL1        0.1497
     23 C          60.0218   85.7305    7.3780 C.3     1  UNL1        0.1217
     24 C          61.2524   85.1015    6.7949 C.3     1  UNL1        0.1634
     25 C          61.9163   84.0659    4.5064 C.3     1  UNL1        0.1742
     26 O          61.1248   84.0050    5.7792 O.3     1  UNL1       -0.3493
     27 O          64.8609   88.6429   15.0322 O.3     1  UNL1       -0.4714
     28 C          64.5393   87.1849   15.1759 C.3     1  UNL1        0.2525
     29 C          61.7930   86.3310   11.5397 C.3     1  UNL1        0.1281
     30 C          61.2117   86.4358   12.9184 C.3     1  UNL1        0.0311
     31 C          62.6035   85.1282   11.1569 C.ar    1  UNL1        0.0796
     32 C          62.9705   84.1097   12.1952 C.ar    1  UNL1        0.0166
     33 C          63.7809   82.9069   11.8125 C.ar    1  UNL1        0.0029
     34 C          64.2243   82.7226   10.3915 C.ar    1  UNL1        0.0207
     35 C          63.8574   83.7411    9.3532 C.ar    1  UNL1        0.0985
     36 N          63.0469   84.9439    9.7359 N.ar    1  UNL1       -0.2463
@<TRIPOS>BOND
     1    25    26    1
     2    26    24    1
     3    24    23    1
     4    23    21    1
     5    21     1    1
     6     1     2   ar
     7     2     3   ar
     8     3     4   ar
     9     4     5   ar
    10     5     6   ar
    11     6     7   ar
    12     7     8   ar
    13     8    14    1
    14    14    15   ar
    15    15    16    1
    16    15    17   ar
    17    17    18   ar
    18    18    19   ar
    19    19    20    1
    20     8     9   ar
    21     9    27    1
    22    27    28    1
    23     9    10   ar
    24    10    11   ar
    25    11    12   ar
    26    12    13   ar
    27    13    29    1
    28    29    30    1
    29    29    31    1
    30    31    32   ar
    31    32    33   ar
    32    33    34   ar
    33    34    35   ar
    34    35    36   ar
    35    13     1   ar
    36    36    31   ar
    37    12     3   ar
    38    11     6   ar
    39    19    14   ar
    40    21    22    1
@<TRIPOS>MOLECULE
*****
 36 40 0 0 0
SMALL
GASTEIGER

@<TRIPOS>ATOM
      1 C          64.8033   91.3585   14.7339 C.ar    1  UNL1        0.1982
      2 N          65.0291   92.2696   13.5640 N.ar    1  UNL1       -0.2122
      3 C          64.4293   91.6233   12.3505 C.ar    1  UNL1        0.1190
      4 C          64.3493   92.0588   10.9174 C.ar    1  UNL1        0.1194
      5 N          63.6728   91.1837    9.9043 N.ar    1  UNL1       -0.2422
      6 C          63.0764   89.8730   10.3242 C.ar    1  UNL1        0.0830
      7 C          62.3999   88.9979    9.3110 C.ar    1  UNL1        0.0223
      8 C          61.8034   87.6872    9.7310 C.ar    1  UNL1        0.0394
      9 C          61.8835   87.2517   11.1642 C.ar    1  UNL1        0.1389
     10 C          62.5600   88.1268   12.1773 C.ar    1  UNL1        0.0399
     11 C          63.1564   89.4375   11.7573 C.ar    1  UNL1        0.0381
     12 C          63.8329   90.3126   12.7705 C.ar    1  UNL1        0.0832
     13 N          64.0640   90.1490   14.2435 N.ar    1  UNL1       -0.2961
     14 C          61.1269   86.8121    8.7178 C.ar    1  UNL1        0.0526
     15 C          61.7447   85.6427    8.0101 C.ar    1  UNL1        0.1007
     16 C          63.1474   85.1431    8.1912 C.3     1  UNL1        0.0557
     17 N          60.7135   85.0606    7.0894 N.ar    1  UNL1       -0.0817
     18 O          59.4583   85.8702    7.2281 O.2     1  UNL1       -0.3581
     19 C          59.7139   86.9527    8.2346 C.ar    1  UNL1        0.1545
     20 C          58.7293   87.9931    8.6796 C.3     1  UNL1        0.0754
     21 N          65.2401   91.6123   16.1463 N.pl3   1  UNL1       -0.3019
     22 H          64.8177   91.1215   16.8879 H       1  UNL1        0.1497
     23 C          66.3204   92.6138   16.4288 C.3     1  UNL1        0.1217
     24 C          67.7374   92.3198   16.0342 C.3     1  UNL1        0.1634
     25 C          68.3378   91.8603   13.5486 C.3     1  UNL1        0.1742
     26 O          68.2637   92.8010   14.7146 O.3     1  UNL1       -0.3493
     27 O          61.2870   85.9410   11.5841 O.3     1  UNL1       -0.4714
     28 C          62.0814   84.6763   11.4442 C.3     1  UNL1        0.2525
     29 C          63.6317   88.9808   15.0793 C.3     1  UNL1        0.1281
     30 C          62.6140   89.1709   16.1646 C.3     1  UNL1        0.0311
     31 C          64.2173   87.6225   14.8298 C.ar    1  UNL1        0.0796
     32 C          65.6507   87.3485   15.1765 C.ar    1  UNL1        0.0166
     33 C          66.2363   85.9902   14.9271 C.ar    1  UNL1        0.0029
     34 C          65.3884   84.9060   14.3309 C.ar    1  UNL1        0.0207
     35 C          63.9550   85.1800   13.9842 C.ar    1  UNL1        0.0985
     36 N          63.3694   86.5382   14.2336 N.ar    1  UNL1       -0.2463
@<TRIPOS>BOND
     1    25    26    1
     2    26    24    1
     3    24    23    1
     4    23    21    1
     5    21     1    1
     6     1     2   ar
     7     2     3   ar
     8     3     4   ar
     9     4     5   ar
    10     5     6   ar
    11     6     7   ar
    12     7     8   ar
    13     8    14    1
    14    14    15   ar
    15    15    16    1
    16    15    17   ar
    17    17    18   ar
    18    18    19   ar
    19    19    20    1
    20     8     9   ar
    21     9    27    1
    22    27    28    1
    23     9    10   ar
    24    10    11   ar
    25    11    12   ar
    26    12    13   ar
    27    13    29    1
    28    29    30    1
    29    29    31    1
    30    31    32   ar
    31    32    33   ar
    32    33    34   ar
    33    34    35   ar
    34    35    36   ar
    35    13     1   ar
    36    36    31   ar
    37    12     3   ar
    38    11     6   ar
    39    19    14   ar
    40    21    22    1
@<TRIPOS>MOLECULE
*****
 36 40 0 0 0
SMALL
GASTEIGER

@<TRIPOS>ATOM
      1 C          62.6528   83.6680   12.1710 C.ar    1  UNL1        0.1982
      2 N          63.5778   83.3090   13.2959 N.ar    1  UNL1       -0.2122
      3 C          64.1304   84.5818   13.8658 C.ar    1  UNL1        0.1190
      4 C          65.0894   84.8456   14.9885 C.ar    1  UNL1        0.1194
      5 N          65.4650   86.2549   15.3385 N.ar    1  UNL1       -0.2422
      6 C          64.8815   87.4005   14.5657 C.ar    1  UNL1        0.0830
      7 C          65.2571   88.8100   14.9158 C.ar    1  UNL1        0.0223
      8 C          64.6736   89.9556   14.1430 C.ar    1  UNL1        0.0394
      9 C          63.7145   89.6917   13.0202 C.ar    1  UNL1        0.1389
     10 C          63.3389   88.2823   12.6703 C.ar    1  UNL1        0.0399
     11 C          63.9224   87.1367   13.4430 C.ar    1  UNL1        0.0381
     12 C          63.5469   85.7274   13.0931 C.ar    1  UNL1        0.0832
     13 N          62.6337   85.1626   12.0456 N.ar    1  UNL1       -0.2961
     14 C          65.0492   91.3650   14.4930 C.ar    1  UNL1        0.0526
     15 C          65.8418   92.3054   13.6343 C.ar    1  UNL1        0.1007
     16 C          66.3981   92.0014   12.2748 C.3     1  UNL1        0.0557
     17 N          65.9806   93.6030   14.3737 N.ar    1  UNL1       -0.0817
     18 O          65.2737   93.4646   15.6894 O.2     1  UNL1       -0.3581
     19 C          64.6980   92.0815   15.7631 C.ar    1  UNL1        0.1545
     20 C          63.9097   91.5144   16.9063 C.3     1  UNL1        0.0754
     21 N          61.8822   82.7019   11.3207 N.pl3   1  UNL1       -0.3019
     22 H          61.0571   82.9930   10.8694 H       1  UNL1        0.1497
     23 C          62.3688   81.2925   11.1579 C.3     1  UNL1        0.1217
     24 C          62.8323   80.5161   12.3548 C.3     1  UNL1        0.1634
     25 C          60.9954   80.9066   14.1501 C.3     1  UNL1        0.1742
     26 O          61.8304   79.9698   13.3284 O.3     1  UNL1       -0.3493
     27 O          63.1310   90.8373   12.2475 O.3     1  UNL1       -0.4714
     28 C          63.1892   90.8379   10.7487 C.3     1  UNL1        0.2525
     29 C          61.8406   85.9536   11.0479 C.3     1  UNL1        0.1281
     30 C          60.9812   87.0938   11.5074 C.3     1  UNL1        0.0311
     31 C          61.9070   85.6044    9.5906 C.ar    1  UNL1        0.0796
     32 C          60.7569   85.9361    8.6867 C.ar    1  UNL1        0.0166
     33 C          60.8232   85.5869    7.2294 C.ar    1  UNL1        0.0029
     34 C          62.0397   84.9060    6.6761 C.ar    1  UNL1        0.0207
     35 C          63.1899   84.5742    7.5800 C.ar    1  UNL1        0.0985
     36 N          63.1236   84.9234    9.0372 N.ar    1  UNL1       -0.2463
@<TRIPOS>BOND
     1    25    26    1
     2    26    24    1
     3    24    23    1
     4    23    21    1
     5    21     1    1
     6     1     2   ar
     7     2     3   ar
     8     3     4   ar
     9     4     5   ar
    10     5     6   ar
    11     6     7   ar
    12     7     8   ar
    13     8    14    1
    14    14    15   ar
    15    15    16    1
    16    15    17   ar
    17    17    18   ar
    18    18    19   ar
    19    19    20    1
    20     8     9   ar
    21     9    27    1
    22    27    28    1
    23     9    10   ar
    24    10    11   ar
    25    11    12   ar
    26    12    13   ar
    27    13    29    1
    28    29    30    1
    29    29    31    1
    30    31    32   ar
    31    32    33   ar
    32    33    34   ar
    33    34    35   ar
    34    35    36   ar
    35    13     1   ar
    36    36    31   ar
    37    12     3   ar
    38    11     6   ar
    39    19    14   ar
    40    21    22    1
@<TRIPOS>MOLECULE
*****
 36 40 0 0 0
SMALL
GASTEIGER

@<TRIPOS>ATOM
      1 C          62.6354   83.3913   11.9391 C.ar    1  UNL1        0.1982
      2 N          63.0253   83.0426   13.3449 N.ar    1  UNL1       -0.2122
      3 C          63.4727   84.3010   14.0277 C.ar    1  UNL1        0.1190
      4 C          63.9687   84.5667   15.4181 C.ar    1  UNL1        0.1194
      5 N          64.3514   85.9589   15.8246 N.ar    1  UNL1       -0.2422
      6 C          64.2381   87.0854   14.8407 C.ar    1  UNL1        0.0830
      7 C          64.6208   88.4777   15.2473 C.ar    1  UNL1        0.0223
      8 C          64.5075   89.6042   14.2634 C.ar    1  UNL1        0.0394
      9 C          64.0116   89.3385   12.8729 C.ar    1  UNL1        0.1389
     10 C          63.6289   87.9463   12.4663 C.ar    1  UNL1        0.0399
     11 C          63.7421   86.8197   13.4503 C.ar    1  UNL1        0.0381
     12 C          63.3595   85.4275   13.0437 C.ar    1  UNL1        0.0832
     13 N          62.8420   84.8653   11.7530 N.ar    1  UNL1       -0.2961
     14 C          64.8902   90.9964   14.6699 C.ar    1  UNL1        0.0526
     15 C          65.8314   91.9028   13.9332 C.ar    1  UNL1        0.1007
     16 C          66.5551   91.5761   12.6606 C.3     1  UNL1        0.0557
     17 N          65.9218   93.1932   14.6925 N.ar    1  UNL1       -0.0817
     18 O          65.0365   93.0843   15.8985 O.2     1  UNL1       -0.3581
     19 C          64.3990   91.7266   15.8845 C.ar    1  UNL1        0.1545
     20 C          63.4388   91.1929   16.9059 C.3     1  UNL1        0.0754
     21 N          62.1281   82.4341   10.9016 N.pl3   1  UNL1       -0.3019
     22 H          61.2581   82.5927   10.4689 H       1  UNL1        0.1497
     23 C          62.9464   81.2352   10.5232 C.3     1  UNL1        0.1217
     24 C          62.8099   79.9588   11.2992 C.3     1  UNL1        0.1634
     25 C          61.6898   80.0055   13.6430 C.3     1  UNL1        0.1742
     26 O          62.9265   79.9741   12.7946 O.3     1  UNL1       -0.3493
     27 O          63.8983   90.4650   11.8889 O.3     1  UNL1       -0.4714
     28 C          62.5875   91.1702   11.7039 C.3     1  UNL1        0.2525
     29 C          62.5775   85.6409   10.4966 C.3     1  UNL1        0.1281
     30 C          63.2126   85.2169    9.2056 C.3     1  UNL1        0.0311
     31 C          61.6778   86.8408   10.5312 C.ar    1  UNL1        0.0796
     32 C          61.7594   87.8710    9.4440 C.ar    1  UNL1        0.0166
     33 C          60.8598   89.0707    9.4786 C.ar    1  UNL1        0.0029
     34 C          59.8786   89.2403   10.6005 C.ar    1  UNL1        0.0207
     35 C          59.7971   88.2101   11.6877 C.ar    1  UNL1        0.0985
     36 N          60.6966   87.0103   11.6531 N.ar    1  UNL1       -0.2463
@<TRIPOS>BOND
     1    25    26    1
     2    26    24    1
     3    24    23    1
     4    23    21    1
     5    21     1    1
     6     1     2   ar
     7     2     3   ar
     8     3     4   ar
     9     4     5   ar
    10     5     6   ar
    11     6     7   ar
    12     7     8   ar
    13     8    14    1
    14    14    15   ar
    15    15    16    1
    16    15    17   ar
    17    17    18   ar
    18    18    19   ar
    19    19    20    1
    20     8     9   ar
    21     9    27    1
    22    27    28    1
    23     9    10   ar
    24    10    11   ar
    25    11    12   ar
    26    12    13   ar
    27    13    29    1
    28    29    30    1
    29    29    31    1
    30    31    32   ar
    31    32    33   ar
    32    33    34   ar
    33    34    35   ar
    34    35    36   ar
    35    13     1   ar
    36    36    31   ar
    37    12     3   ar
    38    11     6   ar
    39    19    14   ar
    40    21    22    1
@<TRIPOS>MOLECULE
*****
 36 40 0 0 0
SMALL
GASTEIGER

@<TRIPOS>ATOM
      1 C          61.9064   85.3749   10.9787 C.ar    1  UNL1        0.1982
      2 N          62.5602   84.5515   12.0485 N.ar    1  UNL1       -0.2122
      3 C          63.3178   85.4804   12.9504 C.ar    1  UNL1        0.1190
      4 C          64.1526   85.2342   14.1720 C.ar    1  UNL1        0.1194
      5 N          64.8019   86.3855   14.8811 N.ar    1  UNL1       -0.2422
      6 C          64.6163   87.7830   14.3686 C.ar    1  UNL1        0.0830
      7 C          65.2656   88.9343   15.0778 C.ar    1  UNL1        0.0223
      8 C          65.0801   90.3318   14.5653 C.ar    1  UNL1        0.0394
      9 C          64.2452   90.5779   13.3436 C.ar    1  UNL1        0.1389
     10 C          63.5959   89.4266   12.6345 C.ar    1  UNL1        0.0399
     11 C          63.7815   88.0291   13.1470 C.ar    1  UNL1        0.0381
     12 C          63.1322   86.8778   12.4379 C.ar    1  UNL1        0.0832
     13 N          62.2600   86.8126   11.2193 N.ar    1  UNL1       -0.2961
     14 C          65.7293   91.4831   15.2745 C.ar    1  UNL1        0.0526
     15 C          67.0558   92.0944   14.9325 C.ar    1  UNL1        0.1007
     16 C          67.9658   91.6617   13.8214 C.3     1  UNL1        0.0557
     17 N          67.3124   93.2143   15.8968 N.ar    1  UNL1       -0.0817
     18 O          66.1445   93.2952   16.8347 O.2     1  UNL1       -0.3581
     19 C          65.1662   92.2252   16.4501 C.ar    1  UNL1        0.1545
     20 C          63.8549   91.9463   17.1229 C.3     1  UNL1        0.0754
     21 N          61.0495   84.8523    9.8639 N.pl3   1  UNL1       -0.3019
     22 H          60.2966   84.2499   10.0627 H       1  UNL1        0.1497
     23 C          61.3398   85.2475    8.4463 C.3     1  UNL1        0.1217
     24 C          60.2520   85.8273    7.5916 C.3     1  UNL1        0.1634
     25 C          59.1078   88.1599    7.5745 C.3     1  UNL1        0.1742
     26 O          59.2719   86.7979    8.1812 O.3     1  UNL1       -0.3493
     27 O          64.0596   91.9754   12.8311 O.3     1  UNL1       -0.4714
     28 C          64.9731   92.5123   11.7694 C.3     1  UNL1        0.2525
     29 C          61.8187   87.9802   10.3874 C.3     1  UNL1        0.1281
     30 C          62.4567   88.2349    9.0540 C.3     1  UNL1        0.0311
     31 C          60.7394   88.8933   10.8890 C.ar    1  UNL1        0.0796
     32 C          60.6434   90.2973   10.3699 C.ar    1  UNL1        0.0166
     33 C          59.5642   91.2103   10.8715 C.ar    1  UNL1        0.0029
     34 C          58.5808   90.7192   11.8922 C.ar    1  UNL1        0.0207
     35 C          58.6768   89.3152   12.4113 C.ar    1  UNL1        0.0985
     36 N          59.7560   88.4022   11.9098 N.ar    1  UNL1       -0.2463
@<TRIPOS>BOND
     1    25    26    1
     2    26    24    1
     3    24    23    1
     4    23    21    1
     5    21     1    1
     6     1     2   ar
     7     2     3   ar
     8     3     4   ar
     9     4     5   ar
    10     5     6   ar
    11     6     7   ar
    12     7     8   ar
    13     8    14    1
    14    14    15   ar
    15    15    16    1
    16    15    17   ar
    17    17    18   ar
    18    18    19   ar
    19    19    20    1
    20     8     9   ar
    21     9    27    1
    22    27    28    1
    23     9    10   ar
    24    10    11   ar
    25    11    12   ar
    26    12    13   ar
    27    13    29    1
    28    29    30    1
    29    29    31    1
    30    31    32   ar
    31    32    33   ar
    32    33    34   ar
    33    34    35   ar
    34    35    36   ar
    35    13     1   ar
    36    36    31   ar
    37    12     3   ar
    38    11     6   ar
    39    19    14   ar
    40    21    22    1
