@<TRIPOS>MOLECULE
*****
 31 34 0 0 0
SMALL
GASTEIGER

@<TRIPOS>ATOM
      1 N          64.3381   90.4336   13.7897 N.ar    1  UNL1       -0.3048
      2 C          65.3706   91.5077   13.9640 C.ar    1  UNL1        0.0833
      3 C          65.4324   92.3018   12.6930 C.ar    1  UNL1        0.0579
      4 C          64.4381   91.7185   11.7331 C.ar    1  UNL1        0.0207
      5 C          64.0612   92.0896   10.3295 C.ar    1  UNL1        0.0016
      6 C          63.0080   91.3061    9.6038 C.ar    1  UNL1        0.0001
      7 C          62.3317   90.1515   10.2816 C.ar    1  UNL1        0.0015
      8 C          62.7086   89.7804   11.6852 C.ar    1  UNL1        0.0175
      9 C          63.7618   90.5639   12.4110 C.ar    1  UNL1        0.0641
     10 C          63.1738   87.3601   16.8635 C.ar    1  UNL1        0.0141
     11 C          63.8994   86.9396   15.6198 C.ar    1  UNL1        0.0026
     12 C          64.2875   87.9641   14.5953 C.ar    1  UNL1        0.0176
     13 C          63.9500   89.4091   14.8143 C.ar    1  UNL1        0.0640
     14 C          63.2244   89.8296   16.0580 C.ar    1  UNL1        0.0176
     15 C          62.8363   88.8051   17.0826 C.ar    1  UNL1        0.0026
     16 O          62.7538   86.7035   19.3419 O.co2   1  UNL1       -0.5446
     17 C          62.7857   86.3355   17.8881 C.2     1  UNL1        0.0729
     18 O          62.4296   84.9431   17.4588 O.co2   1  UNL1       -0.5446
     19 C          66.3308   93.4735   12.4282 C.2     1  UNL1        0.1978
     20 O          66.5282   94.5208   13.4836 O.2     1  UNL1       -0.2865
     21 C          67.0318   93.5978   11.1078 C.ar    1  UNL1        0.0535
     22 C          68.0207   92.5533   10.6825 C.ar    1  UNL1        0.0607
     23 CL         68.3087   91.3845   11.5775 Cl      1  UNL1       -0.0821
     24 C          68.7217   92.6776    9.3622 C.ar    1  UNL1        0.0115
     25 C          68.4337   93.8464    8.4673 C.ar    1  UNL1        0.0008
     26 C          67.4447   94.8909    8.8927 C.ar    1  UNL1        0.0040
     27 C          66.7437   94.7667   10.2129 C.ar    1  UNL1        0.0753
     28 C          65.7548   95.8111   10.6383 C.3     1  UNL1        0.4187
     29 F          64.7658   96.8556   11.0636 F       1  UNL1       -0.1659
     30 F          64.6437   95.0059   10.0323 F       1  UNL1       -0.1659
     31 F          66.8658   96.6164   11.2442 F       1  UNL1       -0.1659
@<TRIPOS>UNITY_ATOM_ATTR
16 1
charge -1
@<TRIPOS>BOND
     1    16    17   ar
     2    17    18   ar
     3    17    10    1
     4    10    11   ar
     5    11    12   ar
     6    12    13   ar
     7    13     1    1
     8     1     2   ar
     9     2     3   ar
    10     3    19    1
    11    19    20    2
    12    19    21    1
    13    21    22   ar
    14    22    23    1
    15    22    24   ar
    16    24    25   ar
    17    25    26   ar
    18    26    27   ar
    19    27    28    1
    20    28    29    1
    21    28    30    1
    22    28    31    1
    23     3     4   ar
    24     4     5   ar
    25     5     6   ar
    26     6     7   ar
    27     7     8   ar
    28     8     9   ar
    29    13    14   ar
    30    14    15   ar
    31    15    10   ar
    32     9     1   ar
    33    27    21   ar
    34     9     4   ar
@<TRIPOS>MOLECULE
*****
 31 34 0 0 0
SMALL
GASTEIGER

@<TRIPOS>ATOM
      1 N          62.3878   87.2314   11.3615 N.ar    1  UNL1       -0.3048
      2 C          62.6871   85.7869   11.6331 C.ar    1  UNL1        0.0833
      3 C          63.5175   85.7121   12.8801 C.ar    1  UNL1        0.0579
      4 C          63.7314   87.1104   13.3791 C.ar    1  UNL1        0.0207
      5 C          64.4717   87.6499   14.5669 C.ar    1  UNL1        0.0016
      6 C          64.5138   89.1284   14.8161 C.ar    1  UNL1        0.0001
      7 C          63.8156   90.0674   13.8776 C.ar    1  UNL1        0.0015
      8 C          63.0753   89.5279   12.6898 C.ar    1  UNL1        0.0175
      9 C          63.0332   88.0494   12.4406 C.ar    1  UNL1        0.0641
     10 C          59.9770   88.8305    7.9146 C.ar    1  UNL1        0.0141
     11 C          60.1962   87.3533    8.0552 C.ar    1  UNL1        0.0026
     12 C          60.9998   86.8203    9.2041 C.ar    1  UNL1        0.0176
     13 C          61.5842   87.7644   10.2126 C.ar    1  UNL1        0.0640
     14 C          61.3650   89.2417   10.0721 C.ar    1  UNL1        0.0176
     15 C          60.5614   89.7747    8.9231 C.ar    1  UNL1        0.0026
     16 O          59.8476   90.1465    5.6783 O.co2   1  UNL1       -0.5446
     17 C          59.1734   89.3635    6.7657 C.2     1  UNL1        0.0729
     18 O          57.6957   89.1135    6.7041 O.co2   1  UNL1       -0.5446
     19 C          64.0419   84.4590   13.5163 C.2     1  UNL1        0.1978
     20 O          65.3940   84.4567   14.1657 O.2     1  UNL1       -0.2865
     21 C          63.2141   83.2081   13.5032 C.ar    1  UNL1        0.0535
     22 C          62.3023   82.9000   14.6537 C.ar    1  UNL1        0.0607
     23 CL         62.2182   83.8430   15.8173 Cl      1  UNL1       -0.0821
     24 C          61.4745   81.6492   14.6406 C.ar    1  UNL1        0.0115
     25 C          61.5586   80.7064   13.4770 C.ar    1  UNL1        0.0008
     26 C          62.4705   81.0144   12.3265 C.ar    1  UNL1        0.0040
     27 C          63.2983   82.2653   12.3396 C.ar    1  UNL1        0.0753
     28 C          64.2101   82.5733   11.1891 C.3     1  UNL1        0.4187
     29 F          65.1220   82.8813   10.0386 F       1  UNL1       -0.1659
     30 F          65.3866   82.1149   11.9989 F       1  UNL1       -0.1659
     31 F          63.0336   83.0317   10.3794 F       1  UNL1       -0.1659
@<TRIPOS>UNITY_ATOM_ATTR
16 1
charge -1
@<TRIPOS>BOND
     1    16    17   ar
     2    17    18   ar
     3    17    10    1
     4    10    11   ar
     5    11    12   ar
     6    12    13   ar
     7    13     1    1
     8     1     2   ar
     9     2     3   ar
    10     3    19    1
    11    19    20    2
    12    19    21    1
    13    21    22   ar
    14    22    23    1
    15    22    24   ar
    16    24    25   ar
    17    25    26   ar
    18    26    27   ar
    19    27    28    1
    20    28    29    1
    21    28    30    1
    22    28    31    1
    23     3     4   ar
    24     4     5   ar
    25     5     6   ar
    26     6     7   ar
    27     7     8   ar
    28     8     9   ar
    29    13    14   ar
    30    14    15   ar
    31    15    10   ar
    32     9     1   ar
    33    27    21   ar
    34     9     4   ar
@<TRIPOS>MOLECULE
*****
 31 34 0 0 0
SMALL
GASTEIGER

@<TRIPOS>ATOM
      1 N          63.4744   90.5618   11.7297 N.ar    1  UNL1       -0.3048
      2 C          64.3801   91.6245   11.1818 C.ar    1  UNL1        0.0833
      3 C          65.0876   92.2707   12.3359 C.ar    1  UNL1        0.0579
      4 C          64.6192   91.6072   13.5970 C.ar    1  UNL1        0.0207
      5 C          64.9717   91.8284   15.0381 C.ar    1  UNL1        0.0016
      6 C          64.3272   90.9934   16.1045 C.ar    1  UNL1        0.0001
      7 C          63.3302   89.9372   15.7299 C.ar    1  UNL1        0.0015
      8 C          62.9776   89.7161   14.2888 C.ar    1  UNL1        0.0175
      9 C          63.6221   90.5511   13.2224 C.ar    1  UNL1        0.0641
     10 C          60.7858   87.8769    9.3186 C.ar    1  UNL1        0.0141
     11 C          61.8649   87.2840   10.1753 C.ar    1  UNL1        0.0026
     12 C          62.7611   88.1790   10.9790 C.ar    1  UNL1        0.0176
     13 C          62.5782   89.6668   10.9260 C.ar    1  UNL1        0.0640
     14 C          61.4990   90.2597   10.0693 C.ar    1  UNL1        0.0176
     15 C          60.6028   89.3647    9.2656 C.ar    1  UNL1        0.0026
     16 O          60.4092   85.6766    7.9896 O.co2   1  UNL1       -0.5446
     17 C          59.8896   86.9819    8.5150 C.2     1  UNL1        0.0729
     18 O          58.4739   87.3923    8.2368 O.co2   1  UNL1       -0.5446
     19 C          66.0880   93.3847   12.2449 C.2     1  UNL1        0.1978
     20 O          66.3173   94.2849   13.4225 O.2     1  UNL1       -0.2865
     21 C          66.8591   93.5984   10.9760 C.ar    1  UNL1        0.0535
     22 C          67.8719   92.5841   10.5340 C.ar    1  UNL1        0.0607
     23 CL         68.1136   91.3561   11.3608 Cl      1  UNL1       -0.0821
     24 C          68.6430   92.7978    9.2653 C.ar    1  UNL1        0.0115
     25 C          68.4013   94.0259    8.4386 C.ar    1  UNL1        0.0008
     26 C          67.3885   95.0402    8.8806 C.ar    1  UNL1        0.0040
     27 C          66.6173   94.8265   10.1493 C.ar    1  UNL1        0.0753
     28 C          65.6045   95.8408   10.5913 C.3     1  UNL1        0.4187
     29 F          64.5917   96.8550   11.0333 F       1  UNL1       -0.1659
     30 F          64.5128   95.0218    9.9689 F       1  UNL1       -0.1659
     31 F          66.6963   96.6597   11.2137 F       1  UNL1       -0.1659
@<TRIPOS>UNITY_ATOM_ATTR
16 1
charge -1
@<TRIPOS>BOND
     1    16    17   ar
     2    17    18   ar
     3    17    10    1
     4    10    11   ar
     5    11    12   ar
     6    12    13   ar
     7    13     1    1
     8     1     2   ar
     9     2     3   ar
    10     3    19    1
    11    19    20    2
    12    19    21    1
    13    21    22   ar
    14    22    23    1
    15    22    24   ar
    16    24    25   ar
    17    25    26   ar
    18    26    27   ar
    19    27    28    1
    20    28    29    1
    21    28    30    1
    22    28    31    1
    23     3     4   ar
    24     4     5   ar
    25     5     6   ar
    26     6     7   ar
    27     7     8   ar
    28     8     9   ar
    29    13    14   ar
    30    14    15   ar
    31    15    10   ar
    32     9     1   ar
    33    27    21   ar
    34     9     4   ar
@<TRIPOS>MOLECULE
*****
 31 34 0 0 0
SMALL
GASTEIGER

@<TRIPOS>ATOM
      1 N          62.4245   87.2727   11.3043 N.ar    1  UNL1       -0.3048
      2 C          62.7986   85.8381   11.5328 C.ar    1  UNL1        0.0833
      3 C          63.6194   85.7673   12.7862 C.ar    1  UNL1        0.0579
      4 C          63.7527   87.1580   13.3324 C.ar    1  UNL1        0.0207
      5 C          64.4510   87.6973   14.5454 C.ar    1  UNL1        0.0016
      6 C          64.4109   89.1670   14.8424 C.ar    1  UNL1        0.0001
      7 C          63.6724   90.0974   13.9265 C.ar    1  UNL1        0.0015
      8 C          62.9740   89.5581   12.7135 C.ar    1  UNL1        0.0175
      9 C          63.0141   88.0884   12.4164 C.ar    1  UNL1        0.0641
     10 C          59.9650   88.8521    7.8827 C.ar    1  UNL1        0.0141
     11 C          60.2107   87.3780    8.0121 C.ar    1  UNL1        0.0026
     12 C          61.0305   86.8516    9.1526 C.ar    1  UNL1        0.0176
     13 C          61.6047   87.7991   10.1637 C.ar    1  UNL1        0.0640
     14 C          61.3589   89.2733   10.0344 C.ar    1  UNL1        0.0176
     15 C          60.5391   89.7997    8.8939 C.ar    1  UNL1        0.0026
     16 O          57.6681   89.1213    6.6990 O.co2   1  UNL1       -0.5446
     17 C          59.1452   89.3785    6.7422 C.2     1  UNL1        0.0729
     18 O          59.8025   90.1622    5.6451 O.co2   1  UNL1       -0.5446
     19 C          64.2044   84.5240   13.3880 C.2     1  UNL1        0.1978
     20 O          65.5712   84.5606   14.0046 O.2     1  UNL1       -0.2865
     21 C          63.4224   83.2439   13.3730 C.ar    1  UNL1        0.0535
     22 C          63.5771   82.2838   12.2310 C.ar    1  UNL1        0.0607
     23 CL         64.5138   82.6037   11.1040 Cl      1  UNL1       -0.0821
     24 C          62.7952   81.0038   12.2160 C.ar    1  UNL1        0.0115
     25 C          61.8585   80.6840   13.3431 C.ar    1  UNL1        0.0008
     26 C          61.7038   81.6442   14.4851 C.ar    1  UNL1        0.0040
     27 C          62.4857   82.9241   14.5001 C.ar    1  UNL1        0.0753
     28 C          62.3309   83.8843   15.6421 C.3     1  UNL1        0.4187
     29 F          62.1762   84.8444   16.7841 F       1  UNL1       -0.1659
     30 F          61.1053   84.4572   14.9944 F       1  UNL1       -0.1659
     31 F          63.5565   83.3113   16.2899 F       1  UNL1       -0.1659
@<TRIPOS>UNITY_ATOM_ATTR
16 1
charge -1
@<TRIPOS>BOND
     1    16    17   ar
     2    17    18   ar
     3    17    10    1
     4    10    11   ar
     5    11    12   ar
     6    12    13   ar
     7    13     1    1
     8     1     2   ar
     9     2     3   ar
    10     3    19    1
    11    19    20    2
    12    19    21    1
    13    21    22   ar
    14    22    23    1
    15    22    24   ar
    16    24    25   ar
    17    25    26   ar
    18    26    27   ar
    19    27    28    1
    20    28    29    1
    21    28    30    1
    22    28    31    1
    23     3     4   ar
    24     4     5   ar
    25     5     6   ar
    26     6     7   ar
    27     7     8   ar
    28     8     9   ar
    29    13    14   ar
    30    14    15   ar
    31    15    10   ar
    32     9     1   ar
    33    27    21   ar
    34     9     4   ar
@<TRIPOS>MOLECULE
*****
 31 34 0 0 0
SMALL
GASTEIGER

@<TRIPOS>ATOM
      1 N          62.2149   86.4129   11.5593 N.ar    1  UNL1       -0.3048
      2 C          62.5944   87.6272   12.3541 C.ar    1  UNL1        0.0833
      3 C          62.1259   88.8379   11.6027 C.ar    1  UNL1        0.0579
      4 C          61.4570   88.3720   10.3435 C.ar    1  UNL1        0.0207
      5 C          60.8048   89.1188    9.2180 C.ar    1  UNL1        0.0016
      6 C          60.2077   88.3668    8.0656 C.ar    1  UNL1        0.0001
      7 C          60.2627   86.8681    8.0388 C.ar    1  UNL1        0.0015
      8 C          60.9149   86.1213    9.1644 C.ar    1  UNL1        0.0175
      9 C          61.5120   86.8732   10.3167 C.ar    1  UNL1        0.0641
     10 C          63.0406   82.1394   12.7020 C.ar    1  UNL1        0.0141
     11 C          62.5916   83.1209   13.7436 C.ar    1  UNL1        0.0026
     12 C          62.3164   84.5454   13.3627 C.ar    1  UNL1        0.0176
     13 C          62.4901   84.9884   11.9402 C.ar    1  UNL1        0.0640
     14 C          62.9391   84.0068   10.8985 C.ar    1  UNL1        0.0176
     15 C          63.2143   82.5823   11.2794 C.ar    1  UNL1        0.0026
     16 O          64.1493   80.4096   14.2919 O.co2   1  UNL1       -0.5446
     17 C          63.3157   80.7149   13.0829 C.2     1  UNL1        0.0729
     18 O          62.7574   79.5958   12.2547 O.co2   1  UNL1       -0.5446
     19 C          62.2965   90.2642   12.0345 C.2     1  UNL1        0.1978
     20 O          61.0941   91.0936   12.3754 O.2     1  UNL1       -0.2865
     21 C          63.6696   90.8613   12.1255 C.ar    1  UNL1        0.0535
     22 C          64.2382   91.6155   10.9603 C.ar    1  UNL1        0.0607
     23 CL         63.4337   91.7728    9.7041 Cl      1  UNL1       -0.0821
     24 C          65.6113   92.2125   11.0513 C.ar    1  UNL1        0.0115
     25 C          66.4157   92.0552   12.3075 C.ar    1  UNL1        0.0008
     26 C          65.8471   91.3010   13.4727 C.ar    1  UNL1        0.0040
     27 C          64.4741   90.7040   13.3818 C.ar    1  UNL1        0.0753
     28 C          63.9055   89.9497   14.5470 C.3     1  UNL1        0.4187
     29 F          63.3369   89.1954   15.7122 F       1  UNL1       -0.1659
     30 F          63.2026   91.1920   15.0082 F       1  UNL1       -0.1659
     31 F          64.6084   88.7074   14.0858 F       1  UNL1       -0.1659
@<TRIPOS>UNITY_ATOM_ATTR
16 1
charge -1
@<TRIPOS>BOND
     1    16    17   ar
     2    17    18   ar
     3    17    10    1
     4    10    11   ar
     5    11    12   ar
     6    12    13   ar
     7    13     1    1
     8     1     2   ar
     9     2     3   ar
    10     3    19    1
    11    19    20    2
    12    19    21    1
    13    21    22   ar
    14    22    23    1
    15    22    24   ar
    16    24    25   ar
    17    25    26   ar
    18    26    27   ar
    19    27    28    1
    20    28    29    1
    21    28    30    1
    22    28    31    1
    23     3     4   ar
    24     4     5   ar
    25     5     6   ar
    26     6     7   ar
    27     7     8   ar
    28     8     9   ar
    29    13    14   ar
    30    14    15   ar
    31    15    10   ar
    32     9     1   ar
    33    27    21   ar
    34     9     4   ar
@<TRIPOS>MOLECULE
*****
 31 34 0 0 0
SMALL
GASTEIGER

@<TRIPOS>ATOM
      1 N          63.4771   89.1184   12.6317 N.ar    1  UNL1       -0.3048
      2 C          63.6652   87.7190   13.1380 C.ar    1  UNL1        0.0833
      3 C          62.6269   86.8494   12.4932 C.ar    1  UNL1        0.0579
      4 C          61.7971   87.7113   11.5886 C.ar    1  UNL1        0.0207
      5 C          60.6309   87.4004   10.6979 C.ar    1  UNL1        0.0016
      6 C          59.9901   88.4918    9.8929 C.ar    1  UNL1        0.0001
      7 C          60.5156   89.8941    9.9785 C.ar    1  UNL1        0.0015
      8 C          61.6817   90.2051   10.8691 C.ar    1  UNL1        0.0175
      9 C          62.3225   89.1136   11.6741 C.ar    1  UNL1        0.0641
     10 C          65.9433   92.7019   13.7836 C.ar    1  UNL1        0.0141
     11 C          65.3282   92.6224   12.4179 C.ar    1  UNL1        0.0026
     12 C          64.5061   91.4279   12.0339 C.ar    1  UNL1        0.0176
     13 C          64.2992   90.3129   13.0156 C.ar    1  UNL1        0.0640
     14 C          64.9143   90.3924   14.3815 C.ar    1  UNL1        0.0176
     15 C          65.7364   91.5869   14.7654 C.ar    1  UNL1        0.0026
     16 O          67.8061   93.7768   15.2411 O.co2   1  UNL1       -0.5446
     17 C          66.7654   93.8963   14.1675 C.2     1  UNL1        0.0729
     18 O          66.5468   95.2103   13.4778 O.co2   1  UNL1       -0.5446
     19 C          62.4496   85.3764   12.7144 C.2     1  UNL1        0.1978
     20 O          61.5106   84.8850   13.7758 O.2     1  UNL1       -0.2865
     21 C          63.2113   84.3947   11.8739 C.ar    1  UNL1        0.0535
     22 C          63.0771   84.4233   10.3802 C.ar    1  UNL1        0.0607
     23 CL         62.1811   85.4335    9.7270 Cl      1  UNL1       -0.0821
     24 C          63.8387   83.4417    9.5398 C.ar    1  UNL1        0.0115
     25 C          64.7347   82.4316   10.1931 C.ar    1  UNL1        0.0008
     26 C          64.8689   82.4030   11.6868 C.ar    1  UNL1        0.0040
     27 C          64.1073   83.3846   12.5273 C.ar    1  UNL1        0.0753
     28 C          64.2415   83.3560   14.0210 C.3     1  UNL1        0.4187
     29 F          64.3758   83.3274   15.5147 F       1  UNL1       -0.1659
     30 F          65.2874   84.4287   13.9475 F       1  UNL1       -0.1659
     31 F          63.1957   82.2833   14.0944 F       1  UNL1       -0.1659
@<TRIPOS>UNITY_ATOM_ATTR
16 1
charge -1
@<TRIPOS>BOND
     1    16    17   ar
     2    17    18   ar
     3    17    10    1
     4    10    11   ar
     5    11    12   ar
     6    12    13   ar
     7    13     1    1
     8     1     2   ar
     9     2     3   ar
    10     3    19    1
    11    19    20    2
    12    19    21    1
    13    21    22   ar
    14    22    23    1
    15    22    24   ar
    16    24    25   ar
    17    25    26   ar
    18    26    27   ar
    19    27    28    1
    20    28    29    1
    21    28    30    1
    22    28    31    1
    23     3     4   ar
    24     4     5   ar
    25     5     6   ar
    26     6     7   ar
    27     7     8   ar
    28     8     9   ar
    29    13    14   ar
    30    14    15   ar
    31    15    10   ar
    32     9     1   ar
    33    27    21   ar
    34     9     4   ar
@<TRIPOS>MOLECULE
*****
 31 34 0 0 0
SMALL
GASTEIGER

@<TRIPOS>ATOM
      1 N          63.5303   87.2914   13.2297 N.ar    1  UNL1       -0.3048
      2 C          64.1698   85.9575   13.4781 C.ar    1  UNL1        0.0833
      3 C          63.6721   85.0032   12.4333 C.ar    1  UNL1        0.0579
      4 C          62.7250   85.7473   11.5392 C.ar    1  UNL1        0.0207
      5 C          61.9310   85.3199   10.3406 C.ar    1  UNL1        0.0016
      6 C          61.0495   86.3066    9.6341 C.ar    1  UNL1        0.0001
      7 C          60.9619   87.7209   10.1264 C.ar    1  UNL1        0.0015
      8 C          61.7558   88.1483   11.3250 C.ar    1  UNL1        0.0175
      9 C          62.6374   87.1616   12.0315 C.ar    1  UNL1        0.0641
     10 C          64.1771   91.0271   15.6539 C.ar    1  UNL1        0.0141
     11 C          64.4651   91.0290   14.1819 C.ar    1  UNL1        0.0026
     12 C          64.2496   89.7838   13.3738 C.ar    1  UNL1        0.0176
     13 C          63.7459   88.5367   14.0378 C.ar    1  UNL1        0.0640
     14 C          63.4578   88.5348   15.5099 C.ar    1  UNL1        0.0176
     15 C          63.6734   89.7800   16.3179 C.ar    1  UNL1        0.0026
     16 O          63.2158   93.0247   17.0087 O.co2   1  UNL1       -0.5446
     17 C          64.3927   92.2724   16.4620 C.2     1  UNL1        0.0729
     18 O          65.7851   92.7652   16.7232 O.co2   1  UNL1       -0.5446
     19 C          64.0543   83.5584   12.3050 C.2     1  UNL1        0.1978
     20 O          65.3577   83.1813   11.6655 O.2     1  UNL1       -0.2865
     21 C          63.1331   82.4906   12.8163 C.ar    1  UNL1        0.0535
     22 C          62.7354   81.3527   11.9236 C.ar    1  UNL1        0.0607
     23 CL         63.2589   81.2826   10.5196 Cl      1  UNL1       -0.0821
     24 C          61.8143   80.2849   12.4348 C.ar    1  UNL1        0.0115
     25 C          61.2909   80.3552   13.8388 C.ar    1  UNL1        0.0008
     26 C          61.6886   81.4931   14.7315 C.ar    1  UNL1        0.0040
     27 C          62.6097   82.5608   14.2203 C.ar    1  UNL1        0.0753
     28 C          63.0075   83.6988   15.1130 C.3     1  UNL1        0.4187
     29 F          63.4052   84.8367   16.0057 F       1  UNL1       -0.1659
     30 F          64.3494   83.0631   15.3254 F       1  UNL1       -0.1659
     31 F          61.6656   84.3344   14.9006 F       1  UNL1       -0.1659
@<TRIPOS>UNITY_ATOM_ATTR
16 1
charge -1
@<TRIPOS>BOND
     1    16    17   ar
     2    17    18   ar
     3    17    10    1
     4    10    11   ar
     5    11    12   ar
     6    12    13   ar
     7    13     1    1
     8     1     2   ar
     9     2     3   ar
    10     3    19    1
    11    19    20    2
    12    19    21    1
    13    21    22   ar
    14    22    23    1
    15    22    24   ar
    16    24    25   ar
    17    25    26   ar
    18    26    27   ar
    19    27    28    1
    20    28    29    1
    21    28    30    1
    22    28    31    1
    23     3     4   ar
    24     4     5   ar
    25     5     6   ar
    26     6     7   ar
    27     7     8   ar
    28     8     9   ar
    29    13    14   ar
    30    14    15   ar
    31    15    10   ar
    32     9     1   ar
    33    27    21   ar
    34     9     4   ar
