@<TRIPOS>MOLECULE
*****
 24 26 0 0 0
SMALL
GASTEIGER

@<TRIPOS>ATOM
      1 C          63.4216   88.1725   12.7196 C.ar    1  UNL1        0.1388
      2 C          62.5655   88.4880   11.5290 C.ar    1  UNL1        0.0537
      3 C          61.7491   87.4070   10.8848 C.ar    1  UNL1        0.0872
      4 N          61.7888   86.0106   11.4311 N.ar    1  UNL1       -0.2099
      5 C          62.6449   85.6952   12.6217 C.ar    1  UNL1        0.2539
      6 N          63.4613   86.7762   13.2659 N.ar    1  UNL1       -0.1948
      7 N          62.6847   84.2988   13.1681 N.ar    1  UNL1       -0.2008
      8 N          62.6609   83.0350   12.3604 N.ar    1  UNL1       -0.1673
      9 C          62.7167   81.8761   13.3112 C.ar    1  UNL1        0.0806
     10 C          62.7147   80.4246   12.9330 C.3     1  UNL1        0.0540
     11 C          62.7750   82.4237   14.7065 C.ar    1  UNL1        0.0313
     12 C          62.7552   83.9210   14.6180 C.ar    1  UNL1        0.0651
     13 C          62.7983   84.8732   15.7762 C.3     1  UNL1        0.0523
     14 C          60.8929   87.7225    9.6942 C.ar    1  UNL1        0.0178
     15 C          60.2003   86.6167    8.9543 C.ar    1  UNL1        0.0015
     16 C          59.3442   86.9321    7.7637 C.ar    1  UNL1        0.0000
     17 C          59.1806   88.3534    7.3130 C.ar    1  UNL1        0.0000
     18 C          59.8732   89.4593    8.0528 C.ar    1  UNL1        0.0000
     19 C          60.7294   89.1438    9.2435 C.ar    1  UNL1        0.0015
     20 C          64.5172   91.0710   15.1992 C.3     1  UNL1        0.0950
     21 C          63.7008   89.9901   14.5550 C.2     1  UNL1        0.2277
     22 O          62.3471   89.6457   15.1019 O.2     1  UNL1       -0.2747
     23 N          64.2380   89.2535   13.3638 N.am    1  UNL1       -0.2692
     24 H          65.1264   89.4795   13.0049 H       1  UNL1        0.1563
@<TRIPOS>BOND
     1    20    21    1
     2    21    22    2
     3    21    23   am
     4    23     1    1
     5     1     2   ar
     6     2     3   ar
     7     3    14    1
     8    14    15   ar
     9    15    16   ar
    10    16    17   ar
    11    17    18   ar
    12    18    19   ar
    13     3     4   ar
    14     4     5   ar
    15     5     7    1
    16     7     8   ar
    17     8     9   ar
    18     9    10    1
    19     9    11   ar
    20    11    12   ar
    21    12    13    1
    22     5     6   ar
    23     6     1   ar
    24    19    14   ar
    25    12     7   ar
    26    23    24    1
@<TRIPOS>MOLECULE
*****
 24 26 0 0 0
SMALL
GASTEIGER

@<TRIPOS>ATOM
      1 C          63.2098   85.9112   12.7692 C.ar    1  UNL1        0.1388
      2 C          62.3188   86.1011   11.5775 C.ar    1  UNL1        0.0537
      3 C          62.0170   87.4834   11.0794 C.ar    1  UNL1        0.0872
      4 N          62.6062   88.6758   11.7729 N.ar    1  UNL1       -0.2099
      5 C          63.4972   88.4859   12.9646 C.ar    1  UNL1        0.2539
      6 N          63.7989   87.1036   13.4627 N.ar    1  UNL1       -0.1948
      7 N          64.0864   89.6783   13.6581 N.ar    1  UNL1       -0.2008
      8 N          64.9359   90.7380   13.0214 N.ar    1  UNL1       -0.1673
      9 C          65.3041   91.7350   14.0799 C.ar    1  UNL1        0.0806
     10 C          66.1463   92.9604   13.8822 C.3     1  UNL1        0.0540
     11 C          64.6821   91.2915   15.3708 C.ar    1  UNL1        0.0313
     12 C          63.9296   90.0204   15.1101 C.ar    1  UNL1        0.0651
     13 C          63.1560   89.2302   16.1236 C.3     1  UNL1        0.0523
     14 C          61.1260   87.6733    9.8877 C.ar    1  UNL1        0.0178
     15 C          60.5556   86.4800    9.1800 C.ar    1  UNL1        0.0015
     16 C          59.6646   86.6698    7.9884 C.ar    1  UNL1        0.0000
     17 C          59.3441   88.0529    7.5043 C.ar    1  UNL1        0.0000
     18 C          59.9145   89.2462    8.2119 C.ar    1  UNL1        0.0000
     19 C          60.8055   89.0563    9.4036 C.ar    1  UNL1        0.0015
     20 C          63.0670   82.5943   14.9436 C.3     1  UNL1        0.0950
     21 C          62.7652   83.9766   14.4454 C.2     1  UNL1        0.2277
     22 O          61.7170   84.8067   15.1254 O.2     1  UNL1       -0.2747
     23 N          63.5116   84.5289   13.2673 N.am    1  UNL1       -0.2692
     24 H          64.1995   83.9841   12.8211 H       1  UNL1        0.1563
@<TRIPOS>BOND
     1    20    21    1
     2    21    22    2
     3    21    23   am
     4    23     1    1
     5     1     2   ar
     6     2     3   ar
     7     3    14    1
     8    14    15   ar
     9    15    16   ar
    10    16    17   ar
    11    17    18   ar
    12    18    19   ar
    13     3     4   ar
    14     4     5   ar
    15     5     7    1
    16     7     8   ar
    17     8     9   ar
    18     9    10    1
    19     9    11   ar
    20    11    12   ar
    21    12    13    1
    22     5     6   ar
    23     6     1   ar
    24    19    14   ar
    25    12     7   ar
    26    23    24    1
@<TRIPOS>MOLECULE
*****
 24 26 0 0 0
SMALL
GASTEIGER

@<TRIPOS>ATOM
      1 C          61.1545   87.3632   10.9185 C.ar    1  UNL1        0.1388
      2 C          61.9291   88.5822   11.3236 C.ar    1  UNL1        0.0537
      3 C          63.0425   88.4658   12.3220 C.ar    1  UNL1        0.0872
      4 N          63.3813   87.1305   12.9153 N.ar    1  UNL1       -0.2099
      5 C          62.6067   85.9116   12.5103 C.ar    1  UNL1        0.2539
      6 N          61.4933   86.0279   11.5119 N.ar    1  UNL1       -0.1948
      7 N          62.9455   84.5762   13.1036 N.ar    1  UNL1       -0.2008
      8 N          62.6181   83.2385   12.5090 N.ar    1  UNL1       -0.1673
      9 C          63.1414   82.1796   13.4336 C.ar    1  UNL1        0.0806
     10 C          63.0329   80.6977   13.2282 C.3     1  UNL1        0.0540
     11 C          63.7923   82.8628   14.5996 C.ar    1  UNL1        0.0313
     12 C          63.6712   84.3440   14.3957 C.ar    1  UNL1        0.0651
     13 C          64.1855   85.4063   15.3213 C.3     1  UNL1        0.0523
     14 C          63.8170   89.6849   12.7271 C.ar    1  UNL1        0.0178
     15 C          64.5118   89.7248   14.0559 C.ar    1  UNL1        0.0015
     16 C          65.2864   90.9437   14.4610 C.ar    1  UNL1        0.0000
     17 C          65.3662   92.1229   13.5372 C.ar    1  UNL1        0.0000
     18 C          64.6714   92.0831   12.2084 C.ar    1  UNL1        0.0000
     19 C          63.8968   90.8640   11.8034 C.ar    1  UNL1        0.0015
     20 C          59.0385   86.9114    7.5916 C.3     1  UNL1        0.0950
     21 C          60.1519   86.7951    8.5900 C.2     1  UNL1        0.2277
     22 O          61.3761   85.9942    8.2583 O.2     1  UNL1       -0.2747
     23 N          60.0411   87.4796    9.9201 N.am    1  UNL1       -0.2692
     24 H          59.2376   88.0052   10.1378 H       1  UNL1        0.1563
@<TRIPOS>BOND
     1    20    21    1
     2    21    22    2
     3    21    23   am
     4    23     1    1
     5     1     2   ar
     6     2     3   ar
     7     3    14    1
     8    14    15   ar
     9    15    16   ar
    10    16    17   ar
    11    17    18   ar
    12    18    19   ar
    13     3     4   ar
    14     4     5   ar
    15     5     7    1
    16     7     8   ar
    17     8     9   ar
    18     9    10    1
    19     9    11   ar
    20    11    12   ar
    21    12    13    1
    22     5     6   ar
    23     6     1   ar
    24    19    14   ar
    25    12     7   ar
    26    23    24    1
@<TRIPOS>MOLECULE
*****
 24 26 0 0 0
SMALL
GASTEIGER

@<TRIPOS>ATOM
      1 C          61.0750   87.3656   10.7159 C.ar    1  UNL1        0.1388
      2 C          61.4632   86.0080   11.2221 C.ar    1  UNL1        0.0537
      3 C          62.5918   85.8667   12.1999 C.ar    1  UNL1        0.0872
      4 N          63.3323   87.0829   12.6716 N.ar    1  UNL1       -0.2099
      5 C          62.9441   88.4404   12.1654 C.ar    1  UNL1        0.2539
      6 N          61.8154   88.5818   11.1876 N.ar    1  UNL1       -0.1948
      7 N          63.6845   89.6568   12.6371 N.ar    1  UNL1       -0.2008
      8 N          64.3868   89.8058   13.9542 N.ar    1  UNL1       -0.1673
      9 C          64.9890   91.1787   14.0056 C.ar    1  UNL1        0.0806
     10 C          65.7820   91.7515   15.1426 C.3     1  UNL1        0.0540
     11 C          64.6588   91.8781   12.7203 C.ar    1  UNL1        0.0313
     12 C          63.8526   90.9375   11.8746 C.ar    1  UNL1        0.0651
     13 C          63.3098   91.2268   10.5065 C.3     1  UNL1        0.0523
     14 C          62.9800   84.5090   12.7061 C.ar    1  UNL1        0.0178
     15 C          62.6003   84.0898   14.0954 C.ar    1  UNL1        0.0015
     16 C          62.9885   82.7322   14.6016 C.ar    1  UNL1        0.0000
     17 C          63.7564   81.7937   13.7185 C.ar    1  UNL1        0.0000
     18 C          64.1361   82.2130   12.3292 C.ar    1  UNL1        0.0000
     19 C          63.7479   83.5706   11.8230 C.ar    1  UNL1        0.0015
     20 C          58.9003   86.9832    7.4183 C.3     1  UNL1        0.0950
     21 C          60.0289   86.8418    8.3962 C.2     1  UNL1        0.2277
     22 O          61.2402   86.0353    8.0320 O.2     1  UNL1       -0.2747
     23 N          59.9463   87.5069    9.7381 N.am    1  UNL1       -0.2692
     24 H          59.1514   88.0362    9.9770 H       1  UNL1        0.1563
@<TRIPOS>BOND
     1    20    21    1
     2    21    22    2
     3    21    23   am
     4    23     1    1
     5     1     2   ar
     6     2     3   ar
     7     3    14    1
     8    14    15   ar
     9    15    16   ar
    10    16    17   ar
    11    17    18   ar
    12    18    19   ar
    13     3     4   ar
    14     4     5   ar
    15     5     7    1
    16     7     8   ar
    17     8     9   ar
    18     9    10    1
    19     9    11   ar
    20    11    12   ar
    21    12    13    1
    22     5     6   ar
    23     6     1   ar
    24    19    14   ar
    25    12     7   ar
    26    23    24    1
@<TRIPOS>MOLECULE
*****
 24 26 0 0 0
SMALL
GASTEIGER

@<TRIPOS>ATOM
      1 C          60.9735   87.3956   10.5446 C.ar    1  UNL1        0.1388
      2 C          61.7511   88.4906   11.2127 C.ar    1  UNL1        0.0537
      3 C          62.8485   88.1503   12.1770 C.ar    1  UNL1        0.0872
      4 N          63.1683   86.7151   12.4733 N.ar    1  UNL1       -0.2099
      5 C          62.3907   85.6201   11.8052 C.ar    1  UNL1        0.2539
      6 N          61.2933   85.9604   10.8408 N.ar    1  UNL1       -0.1948
      7 N          62.7105   84.1848   12.1014 N.ar    1  UNL1       -0.2008
      8 N          62.3692   83.4476   13.3624 N.ar    1  UNL1       -0.1673
      9 C          62.8754   82.0419   13.2290 C.ar    1  UNL1        0.0806
     10 C          62.7496   80.9581   14.2583 C.3     1  UNL1        0.0540
     11 C          63.5297   81.9104   11.8856 C.ar    1  UNL1        0.0313
     12 C          63.4277   83.2348   11.1887 C.ar    1  UNL1        0.0651
     13 C          63.9511   83.5532    9.8196 C.3     1  UNL1        0.0523
     14 C          63.6261   89.2454   12.8451 C.ar    1  UNL1        0.0178
     15 C          64.2660   89.0038   14.1801 C.ar    1  UNL1        0.0015
     16 C          65.0436   90.0988   14.8482 C.ar    1  UNL1        0.0000
     17 C          65.1813   91.4354   14.1813 C.ar    1  UNL1        0.0000
     18 C          64.5414   91.6769   12.8463 C.ar    1  UNL1        0.0000
     19 C          63.7637   90.5819   12.1782 C.ar    1  UNL1        0.0015
     20 C          58.7839   87.4884    7.2360 C.3     1  UNL1        0.0950
     21 C          59.8813   87.1481    8.2003 C.2     1  UNL1        0.2277
     22 O          60.9840   86.2200    7.7846 O.2     1  UNL1       -0.2747
     23 N          59.8761   87.7359    9.5803 N.am    1  UNL1       -0.2692
     24 H          59.1524   88.3450    9.8531 H       1  UNL1        0.1563
@<TRIPOS>BOND
     1    20    21    1
     2    21    22    2
     3    21    23   am
     4    23     1    1
     5     1     2   ar
     6     2     3   ar
     7     3    14    1
     8    14    15   ar
     9    15    16   ar
    10    16    17   ar
    11    17    18   ar
    12    18    19   ar
    13     3     4   ar
    14     4     5   ar
    15     5     7    1
    16     7     8   ar
    17     8     9   ar
    18     9    10    1
    19     9    11   ar
    20    11    12   ar
    21    12    13    1
    22     5     6   ar
    23     6     1   ar
    24    19    14   ar
    25    12     7   ar
    26    23    24    1
@<TRIPOS>MOLECULE
*****
 24 26 0 0 0
SMALL
GASTEIGER

@<TRIPOS>ATOM
      1 C          61.1173   87.4629   10.8418 C.ar    1  UNL1        0.1388
      2 C          61.4953   86.0706   11.2523 C.ar    1  UNL1        0.0537
      3 C          62.6252   85.8530   12.2145 C.ar    1  UNL1        0.0872
      4 N          63.3773   87.0277   12.7662 N.ar    1  UNL1       -0.2099
      5 C          62.9994   88.4200   12.3557 C.ar    1  UNL1        0.2539
      6 N          61.8694   88.6376   11.3935 N.ar    1  UNL1       -0.1948
      7 N          63.7514   89.5948   12.9074 N.ar    1  UNL1       -0.2008
      8 N          64.2843   90.7516   12.1150 N.ar    1  UNL1       -0.1673
      9 C          64.9648   91.6908   13.0662 C.ar    1  UNL1        0.0806
     10 C          65.6393   92.9799   12.7012 C.3     1  UNL1        0.0540
     11 C          64.8525   91.1144   14.4465 C.ar    1  UNL1        0.0313
     12 C          64.1026   89.8191   14.3484 C.ar    1  UNL1        0.0651
     13 C          63.7634   88.9080   15.4907 C.3     1  UNL1        0.0523
     14 C          63.0031   84.4605   12.6249 C.ar    1  UNL1        0.0178
     15 C          63.6996   83.5551   11.6528 C.ar    1  UNL1        0.0015
     16 C          64.0775   82.1627   12.0632 C.ar    1  UNL1        0.0000
     17 C          63.7590   81.6758   13.4458 C.ar    1  UNL1        0.0000
     18 C          63.0625   82.5812   14.4179 C.ar    1  UNL1        0.0000
     19 C          62.6846   83.9737   14.0075 C.ar    1  UNL1        0.0015
     20 C          58.8912   87.2545    7.5630 C.3     1  UNL1        0.0950
     21 C          60.0211   87.0369    8.5252 C.2     1  UNL1        0.2277
     22 O          61.1849   86.1755    8.1329 O.2     1  UNL1       -0.2747
     23 N          59.9874   87.6806    9.8796 N.am    1  UNL1       -0.2692
     24 H          59.2236   88.2459   10.1371 H       1  UNL1        0.1563
@<TRIPOS>BOND
     1    20    21    1
     2    21    22    2
     3    21    23   am
     4    23     1    1
     5     1     2   ar
     6     2     3   ar
     7     3    14    1
     8    14    15   ar
     9    15    16   ar
    10    16    17   ar
    11    17    18   ar
    12    18    19   ar
    13     3     4   ar
    14     4     5   ar
    15     5     7    1
    16     7     8   ar
    17     8     9   ar
    18     9    10    1
    19     9    11   ar
    20    11    12   ar
    21    12    13    1
    22     5     6   ar
    23     6     1   ar
    24    19    14   ar
    25    12     7   ar
    26    23    24    1
@<TRIPOS>MOLECULE
*****
 24 26 0 0 0
SMALL
GASTEIGER

@<TRIPOS>ATOM
      1 C          63.2717   87.2461   12.7348 C.ar    1  UNL1        0.1388
      2 C          62.4421   87.7934   11.6114 C.ar    1  UNL1        0.0537
      3 C          61.6989   86.8588   10.7035 C.ar    1  UNL1        0.0872
      4 N          61.7855   85.3769   10.9189 N.ar    1  UNL1       -0.2099
      5 C          62.6152   84.8296   12.0423 C.ar    1  UNL1        0.2539
      6 N          63.3583   85.7642   12.9502 N.ar    1  UNL1       -0.1948
      7 N          62.7018   83.3476   12.2578 N.ar    1  UNL1       -0.2008
      8 N          62.0585   82.5800   13.3744 N.ar    1  UNL1       -0.1673
      9 C          62.4060   81.1311   13.2013 C.ar    1  UNL1        0.0806
     10 C          61.9716   80.0073   14.0948 C.3     1  UNL1        0.0540
     11 C          63.2641   81.0033   11.9776 C.ar    1  UNL1        0.0313
     12 C          63.4469   82.3732   11.3945 C.ar    1  UNL1        0.0651
     13 C          64.2363   82.7095   10.1642 C.3     1  UNL1        0.0523
     14 C          60.8692   87.4062    9.5800 C.ar    1  UNL1        0.0178
     15 C          60.8231   88.8850    9.3332 C.ar    1  UNL1        0.0015
     16 C          59.9935   89.4324    8.2099 C.ar    1  UNL1        0.0000
     17 C          59.2098   88.5010    7.3333 C.ar    1  UNL1        0.0000
     18 C          59.2559   87.0221    7.5801 C.ar    1  UNL1        0.0000
     19 C          60.0857   86.4747    8.7035 C.ar    1  UNL1        0.0015
     20 C          64.1648   90.4466   14.9047 C.3     1  UNL1        0.0950
     21 C          63.4217   89.5120   13.9968 C.2     1  UNL1        0.2277
     22 O          62.0853   89.9090   13.4429 O.2     1  UNL1       -0.2747
     23 N          64.0149   88.1806   13.6427 N.am    1  UNL1       -0.2692
     24 H          64.8919   87.9202   14.0062 H       1  UNL1        0.1563
@<TRIPOS>BOND
     1    20    21    1
     2    21    22    2
     3    21    23   am
     4    23     1    1
     5     1     2   ar
     6     2     3   ar
     7     3    14    1
     8    14    15   ar
     9    15    16   ar
    10    16    17   ar
    11    17    18   ar
    12    18    19   ar
    13     3     4   ar
    14     4     5   ar
    15     5     7    1
    16     7     8   ar
    17     8     9   ar
    18     9    10    1
    19     9    11   ar
    20    11    12   ar
    21    12    13    1
    22     5     6   ar
    23     6     1   ar
    24    19    14   ar
    25    12     7   ar
    26    23    24    1
@<TRIPOS>MOLECULE
*****
 24 26 0 0 0
SMALL
GASTEIGER

@<TRIPOS>ATOM
      1 C          62.6478   85.2276    8.7459 C.ar    1  UNL1        0.1388
      2 C          62.0971   86.5831    9.0762 C.ar    1  UNL1        0.0537
      3 C          61.7952   86.9434   10.5006 C.ar    1  UNL1        0.0872
      4 N          62.0441   85.9480   11.5948 N.ar    1  UNL1       -0.2099
      5 C          62.5948   84.5925   11.2646 C.ar    1  UNL1        0.2539
      6 N          62.8967   84.2322    9.8401 N.ar    1  UNL1       -0.1948
      7 N          62.8437   83.5971   12.3588 N.ar    1  UNL1       -0.2008
      8 N          62.4136   82.1600   12.3581 N.ar    1  UNL1       -0.1673
      9 C          62.8705   81.5387   13.6446 C.ar    1  UNL1        0.0806
     10 C          62.6530   80.1145   14.0620 C.3     1  UNL1        0.0540
     11 C          63.5829   82.5918   14.4406 C.ar    1  UNL1        0.0313
     12 C          63.5664   83.8639   13.6459 C.ar    1  UNL1        0.0651
     13 C          64.1671   85.1730   14.0647 C.3     1  UNL1        0.0523
     14 C          61.2445   88.2990   10.8309 C.ar    1  UNL1        0.0178
     15 C          62.0449   89.5293   10.5218 C.ar    1  UNL1        0.0015
     16 C          61.4943   90.8849   10.8520 C.ar    1  UNL1        0.0000
     17 C          60.1431   91.0102   11.4913 C.ar    1  UNL1        0.0000
     18 C          59.3426   89.7799   11.8004 C.ar    1  UNL1        0.0000
     19 C          59.8933   88.4242   11.4701 C.ar    1  UNL1        0.0015
     20 C          62.1306   84.3023    4.9215 C.3     1  UNL1        0.0950
     21 C          61.8288   84.6625    6.3459 C.2     1  UNL1        0.2277
     22 O          60.4059   84.8179    6.7949 O.2     1  UNL1       -0.2747
     23 N          62.9496   84.8673    7.3214 N.am    1  UNL1       -0.2692
     24 H          63.8835   84.7653    7.0268 H       1  UNL1        0.1563
@<TRIPOS>BOND
     1    20    21    1
     2    21    22    2
     3    21    23   am
     4    23     1    1
     5     1     2   ar
     6     2     3   ar
     7     3    14    1
     8    14    15   ar
     9    15    16   ar
    10    16    17   ar
    11    17    18   ar
    12    18    19   ar
    13     3     4   ar
    14     4     5   ar
    15     5     7    1
    16     7     8   ar
    17     8     9   ar
    18     9    10    1
    19     9    11   ar
    20    11    12   ar
    21    12    13    1
    22     5     6   ar
    23     6     1   ar
    24    19    14   ar
    25    12     7   ar
    26    23    24    1
@<TRIPOS>MOLECULE
*****
 24 26 0 0 0
SMALL
GASTEIGER

@<TRIPOS>ATOM
      1 C          63.8994   91.5418   11.0000 C.ar    1  UNL1        0.1388
      2 C          63.1172   90.6413   10.0905 C.ar    1  UNL1        0.0537
      3 C          62.4032   89.4467   10.6502 C.ar    1  UNL1        0.0872
      4 N          62.4714   89.1527   12.1195 N.ar    1  UNL1       -0.2099
      5 C          63.2536   90.0532   13.0290 C.ar    1  UNL1        0.2539
      6 N          63.9676   91.2477   12.4692 N.ar    1  UNL1       -0.1948
      7 N          63.3218   89.7592   14.4984 N.ar    1  UNL1       -0.2008
      8 N          62.8812   88.4897   15.1649 N.ar    1  UNL1       -0.1673
      9 C          63.1297   88.6290   16.6376 C.ar    1  UNL1        0.0806
     10 C          62.8356   87.5944   17.6831 C.3     1  UNL1        0.0540
     11 C          63.7239   89.9846   16.8813 C.ar    1  UNL1        0.0313
     12 C          63.8426   90.6831   15.5592 C.ar    1  UNL1        0.0651
     13 C          64.3866   92.0632   15.3369 C.3     1  UNL1        0.0523
     14 C          61.6210   88.5462    9.7406 C.ar    1  UNL1        0.0178
     15 C          62.0365   87.1160    9.5625 C.ar    1  UNL1        0.0015
     16 C          61.2543   86.2154    8.6530 C.ar    1  UNL1        0.0000
     17 C          60.0567   86.7452    7.9215 C.ar    1  UNL1        0.0000
     18 C          59.6412   88.1754    8.0996 C.ar    1  UNL1        0.0000
     19 C          60.4234   89.0760    9.0092 C.ar    1  UNL1        0.0015
     20 C          66.6681   94.3262   10.4245 C.3     1  UNL1        0.0950
     21 C          65.9541   93.1317   10.9843 C.2     1  UNL1        0.2277
     22 O          66.5808   92.3326   12.0883 O.2     1  UNL1       -0.2747
     23 N          64.6134   92.7363   10.4402 N.am    1  UNL1       -0.2692
     24 H          64.2020   93.2607    9.7156 H       1  UNL1        0.1563
@<TRIPOS>BOND
     1    20    21    1
     2    21    22    2
     3    21    23   am
     4    23     1    1
     5     1     2   ar
     6     2     3   ar
     7     3    14    1
     8    14    15   ar
     9    15    16   ar
    10    16    17   ar
    11    17    18   ar
    12    18    19   ar
    13     3     4   ar
    14     4     5   ar
    15     5     7    1
    16     7     8   ar
    17     8     9   ar
    18     9    10    1
    19     9    11   ar
    20    11    12   ar
    21    12    13    1
    22     5     6   ar
    23     6     1   ar
    24    19    14   ar
    25    12     7   ar
    26    23    24    1
