@<TRIPOS>MOLECULE
*****
 29 33 0 0 0
SMALL
GASTEIGER

@<TRIPOS>ATOM
      1 O          61.2396   87.5084    9.0793 O.2     1  UNL1       -0.2638
      2 C          62.0116   87.7311   10.3460 C.2     1  UNL1        0.3160
      3 N          62.4695   89.1116   10.7124 N.am    1  UNL1       -0.1721
      4 C          63.2415   89.3342   11.9792 C.ar    1  UNL1        0.0771
      5 C          63.6995   90.7148   12.3456 C.ar    1  UNL1        0.0125
      6 C          64.4714   90.9374   13.6122 C.ar    1  UNL1       -0.0206
      7 C          64.7854   89.7794   14.5125 C.ar    1  UNL1       -0.0041
      8 C          64.3275   88.3988   14.1461 C.ar    1  UNL1        0.0048
      9 C          63.5555   88.1763   12.8794 C.ar    1  UNL1        0.0623
     10 C          63.0975   86.7956   12.5130 C.2     1  UNL1        0.2419
     11 N          63.2570   85.4706   13.1975 N.2     1  UNL1       -0.0302
     12 C          62.5836   84.4290   12.3539 C.2     1  UNL1        0.3765
     13 N          62.0080   85.1104   11.1480 N.2     1  UNL1       -0.0256
     14 C          62.3256   86.5731   11.2463 C.2     1  UNL1        0.2907
     15 C          62.5005   82.9633   12.6622 C.ar    1  UNL1        0.0989
     16 C          61.8381   82.4989   13.9253 C.ar    1  UNL1        0.0085
     17 C          61.7550   81.0333   14.2334 C.ar    1  UNL1        0.0003
     18 C          62.3344   80.0321   13.2785 C.ar    1  UNL1        0.0009
     19 C          62.9968   80.4965   12.0155 C.ar    1  UNL1        0.0116
     20 C          63.0799   81.9621   11.7073 C.ar    1  UNL1        0.0651
     21 CL         63.7424   82.4265   10.4441 Cl      1  UNL1       -0.0820
     22 C          64.9294   92.3180   13.9787 C.3     1  UNL1        0.0311
     23 C          66.3157   92.7673   13.6234 C.3     1  UNL1        0.0310
     24 C          66.6314   93.1855   12.2179 C.ar    1  UNL1       -0.0218
     25 C          66.2430   94.5522   11.7369 C.ar    1  UNL1       -0.0043
     26 C          66.5588   94.9705   10.3314 C.ar    1  UNL1       -0.0003
     27 C          67.2629   94.0221    9.4069 C.ar    1  UNL1       -0.0000
     28 C          67.6513   92.6554    9.8879 C.ar    1  UNL1       -0.0003
     29 C          67.3356   92.2371   11.2933 C.ar    1  UNL1       -0.0043
@<TRIPOS>BOND
     1     1     2    2
     2     2     3    1
     3     3     4    2
     4     4     5   ar
     5     5     6   ar
     6     6    22    1
     7    22    23    1
     8    23    24    1
     9    24    25   ar
    10    25    26   ar
    11    26    27   ar
    12    27    28   ar
    13    28    29   ar
    14     6     7   ar
    15     7     8   ar
    16     8     9   ar
    17     9    10    2
    18    10    11    1
    19    11    12    2
    20    12    15    1
    21    15    16   ar
    22    16    17   ar
    23    17    18   ar
    24    18    19   ar
    25    19    20   ar
    26    20    21    1
    27    12    13    1
    28    13    14    2
    29    14     2    1
    30     9     4   ar
    31    14    10    1
    32    29    24   ar
    33    20    15   ar
@<TRIPOS>MOLECULE
*****
 29 33 0 0 0
SMALL
GASTEIGER

@<TRIPOS>ATOM
      1 O          60.8058   86.9243    8.5658 O.2     1  UNL1       -0.2638
      2 C          61.6099   87.3168    9.7698 C.2     1  UNL1        0.3160
      3 N          61.9972   88.7508    9.9781 N.am    1  UNL1       -0.1721
      4 C          62.8013   89.1433   11.1821 C.ar    1  UNL1        0.0771
      5 C          63.1885   90.5774   11.3905 C.ar    1  UNL1        0.0125
      6 C          63.9925   90.9697   12.5944 C.ar    1  UNL1       -0.0206
      7 C          64.4094   89.9280   13.5899 C.ar    1  UNL1       -0.0041
      8 C          64.0222   88.4940   13.3816 C.ar    1  UNL1        0.0048
      9 C          63.2181   88.1016   12.1777 C.ar    1  UNL1        0.0623
     10 C          62.8309   86.6675   11.9692 C.2     1  UNL1        0.2419
     11 N          63.0956   85.4294   12.7735 N.2     1  UNL1       -0.0302
     12 C          62.4552   84.2717   12.0666 C.2     1  UNL1        0.3765
     13 N          61.7946   84.7944   10.8255 N.2     1  UNL1       -0.0256
     14 C          62.0268   86.2751   10.7653 C.2     1  UNL1        0.2907
     15 C          62.4723   82.8423   12.5211 C.ar    1  UNL1        0.0989
     16 C          62.7533   81.7457   11.5370 C.ar    1  UNL1        0.0085
     17 C          62.7704   80.3163   11.9916 C.ar    1  UNL1        0.0003
     18 C          62.5065   79.9836   13.4302 C.ar    1  UNL1        0.0009
     19 C          62.2255   81.0802   14.4143 C.ar    1  UNL1        0.0116
     20 C          62.2084   82.5095   13.9598 C.ar    1  UNL1        0.0651
     21 CL         61.9275   83.6062   14.9439 Cl      1  UNL1       -0.0820
     22 C          64.3798   92.4039   12.8028 C.3     1  UNL1        0.0311
     23 C          65.8133   92.8220   12.6601 C.3     1  UNL1        0.0310
     24 C          66.7540   92.6835   13.8202 C.ar    1  UNL1       -0.0218
     25 C          68.2043   92.3867   13.5784 C.ar    1  UNL1       -0.0043
     26 C          69.1450   92.2481   14.7386 C.ar    1  UNL1       -0.0003
     27 C          68.6354   92.4064   16.1404 C.ar    1  UNL1       -0.0000
     28 C          67.1851   92.7032   16.3822 C.ar    1  UNL1       -0.0003
     29 C          66.2444   92.8417   15.2221 C.ar    1  UNL1       -0.0043
@<TRIPOS>BOND
     1     1     2    2
     2     2     3    1
     3     3     4    2
     4     4     5   ar
     5     5     6   ar
     6     6    22    1
     7    22    23    1
     8    23    24    1
     9    24    25   ar
    10    25    26   ar
    11    26    27   ar
    12    27    28   ar
    13    28    29   ar
    14     6     7   ar
    15     7     8   ar
    16     8     9   ar
    17     9    10    2
    18    10    11    1
    19    11    12    2
    20    12    15    1
    21    15    16   ar
    22    16    17   ar
    23    17    18   ar
    24    18    19   ar
    25    19    20   ar
    26    20    21    1
    27    12    13    1
    28    13    14    2
    29    14     2    1
    30     9     4   ar
    31    14    10    1
    32    29    24   ar
    33    20    15   ar
@<TRIPOS>MOLECULE
*****
 29 33 0 0 0
SMALL
GASTEIGER

@<TRIPOS>ATOM
      1 O          60.6912   88.6081    9.7602 O.2     1  UNL1       -0.2638
      2 C          61.7531   88.7723   10.8069 C.2     1  UNL1        0.3160
      3 N          62.3626   90.1208   11.0518 N.am    1  UNL1       -0.1721
      4 C          63.4245   90.2850   12.0985 C.ar    1  UNL1        0.0771
      5 C          64.0340   91.6335   12.3434 C.ar    1  UNL1        0.0125
      6 C          65.0958   91.7977   13.3901 C.ar    1  UNL1       -0.0206
      7 C          65.5481   90.6134   14.1918 C.ar    1  UNL1       -0.0041
      8 C          64.9386   89.2649   13.9469 C.ar    1  UNL1        0.0048
      9 C          63.8768   89.1007   12.9003 C.ar    1  UNL1        0.0623
     10 C          63.2672   87.7522   12.6553 C.2     1  UNL1        0.2419
     11 N          63.5090   86.4122   13.2846 N.2     1  UNL1       -0.0302
     12 C          62.5966   85.4198   12.6267 C.2     1  UNL1        0.3765
     13 N          61.7909   86.1465   11.5910 N.2     1  UNL1       -0.0256
     14 C          62.2054   87.5880   11.6087 C.2     1  UNL1        0.2907
     15 C          62.5058   83.9574   12.9483 C.ar    1  UNL1        0.0989
     16 C          62.7130   82.9377   11.8679 C.ar    1  UNL1        0.0085
     17 C          62.6222   81.4755   12.1895 C.ar    1  UNL1        0.0003
     18 C          62.3243   81.0329   13.5914 C.ar    1  UNL1        0.0009
     19 C          62.1171   82.0526   14.6717 C.ar    1  UNL1        0.0116
     20 C          62.2079   83.5149   14.3502 C.ar    1  UNL1        0.0651
     21 CL         62.0007   84.5347   15.4306 Cl      1  UNL1       -0.0820
     22 C          65.7054   93.1462   13.6350 C.3     1  UNL1        0.0311
     23 C          65.8919   94.1032   12.4951 C.3     1  UNL1        0.0310
     24 C          66.7393   93.7142   11.3202 C.ar    1  UNL1       -0.0218
     25 C          67.3851   92.3610   11.2766 C.ar    1  UNL1       -0.0043
     26 C          68.2326   91.9720   10.1016 C.ar    1  UNL1       -0.0003
     27 C          68.4343   92.9361    8.9703 C.ar    1  UNL1       -0.0000
     28 C          67.7885   94.2892    9.0140 C.ar    1  UNL1       -0.0003
     29 C          66.9410   94.6783   10.1889 C.ar    1  UNL1       -0.0043
@<TRIPOS>BOND
     1     1     2    2
     2     2     3    1
     3     3     4    2
     4     4     5   ar
     5     5     6   ar
     6     6    22    1
     7    22    23    1
     8    23    24    1
     9    24    25   ar
    10    25    26   ar
    11    26    27   ar
    12    27    28   ar
    13    28    29   ar
    14     6     7   ar
    15     7     8   ar
    16     8     9   ar
    17     9    10    2
    18    10    11    1
    19    11    12    2
    20    12    15    1
    21    15    16   ar
    22    16    17   ar
    23    17    18   ar
    24    18    19   ar
    25    19    20   ar
    26    20    21    1
    27    12    13    1
    28    13    14    2
    29    14     2    1
    30     9     4   ar
    31    14    10    1
    32    29    24   ar
    33    20    15   ar
@<TRIPOS>MOLECULE
*****
 29 33 0 0 0
SMALL
GASTEIGER

@<TRIPOS>ATOM
      1 O          67.6180   93.8570   15.4657 O.2     1  UNL1       -0.2638
      2 C          66.7332   92.9069   14.7143 C.2     1  UNL1        0.3160
      3 N          66.2528   91.6484   15.3740 N.am    1  UNL1       -0.1721
      4 C          65.3680   90.6983   14.6226 C.ar    1  UNL1        0.0771
      5 C          64.8876   89.4398   15.2823 C.ar    1  UNL1        0.0125
      6 C          64.0029   88.4898   14.5309 C.ar    1  UNL1       -0.0206
      7 C          63.5985   88.7983   13.1197 C.ar    1  UNL1       -0.0041
      8 C          64.0789   90.0569   12.4600 C.ar    1  UNL1        0.0048
      9 C          64.9636   91.0069   13.2114 C.ar    1  UNL1        0.0623
     10 C          65.4440   92.2655   12.5517 C.2     1  UNL1        0.2419
     11 N          65.2124   92.8323   11.1825 N.2     1  UNL1       -0.0302
     12 C          65.9540   94.1328   11.0876 C.2     1  UNL1        0.3765
     13 N          66.6439   94.3695   12.3983 N.2     1  UNL1       -0.0256
     14 C          66.3288   93.2155   13.3031 C.2     1  UNL1        0.2907
     15 C          65.9978   95.0375    9.8920 C.ar    1  UNL1        0.0989
     16 C          64.8446   95.9512    9.6001 C.ar    1  UNL1        0.0085
     17 C          64.8885   96.8559    8.4045 C.ar    1  UNL1        0.0003
     18 C          66.0857   96.8470    7.5008 C.ar    1  UNL1        0.0009
     19 C          67.2389   95.9333    7.7926 C.ar    1  UNL1        0.0116
     20 C          67.1950   95.0286    8.9882 C.ar    1  UNL1        0.0651
     21 CL         68.3482   94.1148    9.2801 Cl      1  UNL1       -0.0820
     22 C          63.5224   87.2312   15.1906 C.3     1  UNL1        0.0311
     23 C          64.2955   85.9562   15.0265 C.3     1  UNL1        0.0310
     24 C          63.6712   84.7853   14.3271 C.ar    1  UNL1       -0.0218
     25 C          63.2147   83.5954   15.1181 C.ar    1  UNL1       -0.0043
     26 C          62.5903   82.4245   14.4187 C.ar    1  UNL1       -0.0003
     27 C          62.4225   82.4435   12.9283 C.ar    1  UNL1       -0.0000
     28 C          62.8790   83.6334   12.1372 C.ar    1  UNL1       -0.0003
     29 C          63.5033   84.8043   12.8366 C.ar    1  UNL1       -0.0043
@<TRIPOS>BOND
     1     1     2    2
     2     2     3    1
     3     3     4    2
     4     4     5   ar
     5     5     6   ar
     6     6    22    1
     7    22    23    1
     8    23    24    1
     9    24    25   ar
    10    25    26   ar
    11    26    27   ar
    12    27    28   ar
    13    28    29   ar
    14     6     7   ar
    15     7     8   ar
    16     8     9   ar
    17     9    10    2
    18    10    11    1
    19    11    12    2
    20    12    15    1
    21    15    16   ar
    22    16    17   ar
    23    17    18   ar
    24    18    19   ar
    25    19    20   ar
    26    20    21    1
    27    12    13    1
    28    13    14    2
    29    14     2    1
    30     9     4   ar
    31    14    10    1
    32    29    24   ar
    33    20    15   ar
@<TRIPOS>MOLECULE
*****
 29 33 0 0 0
SMALL
GASTEIGER

@<TRIPOS>ATOM
      1 O          67.7151   94.0284   16.1577 O.2     1  UNL1       -0.2638
      2 C          66.6864   93.1729   15.4795 C.2     1  UNL1        0.3160
      3 N          65.9244   92.1492   16.2677 N.am    1  UNL1       -0.1721
      4 C          64.8957   91.2937   15.5895 C.ar    1  UNL1        0.0771
      5 C          64.1338   90.2699   16.3777 C.ar    1  UNL1        0.0125
      6 C          63.1051   89.4145   15.6994 C.ar    1  UNL1       -0.0206
      7 C          62.8384   89.5828   14.2330 C.ar    1  UNL1       -0.0041
      8 C          63.6004   90.6065   13.4447 C.ar    1  UNL1        0.0048
      9 C          64.6290   91.4620   14.1230 C.ar    1  UNL1        0.0623
     10 C          65.3910   92.4858   13.3347 C.2     1  UNL1        0.2419
     11 N          65.3451   92.8759   11.8871 N.2     1  UNL1       -0.0302
     12 C          66.3453   93.9725   11.6707 C.2     1  UNL1        0.3765
     13 N          67.0095   94.2601   12.9845 N.2     1  UNL1       -0.0256
     14 C          66.4197   93.3412   14.0130 C.2     1  UNL1        0.2907
     15 C          66.6313   94.6608   10.3689 C.ar    1  UNL1        0.0989
     16 C          67.2938   93.9090    9.2527 C.ar    1  UNL1        0.0085
     17 C          67.5797   94.5972    7.9510 C.ar    1  UNL1        0.0003
     18 C          67.2031   96.0373    7.7654 C.ar    1  UNL1        0.0009
     19 C          66.5405   96.7891    8.8815 C.ar    1  UNL1        0.0116
     20 C          66.2546   96.1008   10.1833 C.ar    1  UNL1        0.0651
     21 CL         65.5920   96.8526   11.2995 Cl      1  UNL1       -0.0820
     22 C          62.3431   88.3907   16.4877 C.3     1  UNL1        0.0311
     23 C          63.0530   87.1925   17.0450 C.3     1  UNL1        0.0310
     24 C          63.3305   86.0092   16.1660 C.ar    1  UNL1       -0.0218
     25 C          64.5904   85.9573   15.3537 C.ar    1  UNL1       -0.0043
     26 C          64.8679   84.7738   14.4747 C.ar    1  UNL1       -0.0003
     27 C          63.8855   83.6423   14.4081 C.ar    1  UNL1       -0.0000
     28 C          62.6255   83.6942   15.2205 C.ar    1  UNL1       -0.0003
     29 C          62.3480   84.8776   16.0994 C.ar    1  UNL1       -0.0043
@<TRIPOS>BOND
     1     1     2    2
     2     2     3    1
     3     3     4    2
     4     4     5   ar
     5     5     6   ar
     6     6    22    1
     7    22    23    1
     8    23    24    1
     9    24    25   ar
    10    25    26   ar
    11    26    27   ar
    12    27    28   ar
    13    28    29   ar
    14     6     7   ar
    15     7     8   ar
    16     8     9   ar
    17     9    10    2
    18    10    11    1
    19    11    12    2
    20    12    15    1
    21    15    16   ar
    22    16    17   ar
    23    17    18   ar
    24    18    19   ar
    25    19    20   ar
    26    20    21    1
    27    12    13    1
    28    13    14    2
    29    14     2    1
    30     9     4   ar
    31    14    10    1
    32    29    24   ar
    33    20    15   ar
