@<TRIPOS>MOLECULE
*****
 39 43 0 0 0
SMALL
GASTEIGER

@<TRIPOS>ATOM
      1 C          61.9918   85.5988   10.7550 C.3     1  UNL1        0.0007
      2 C          62.7971   85.9646   11.9666 C.3     1  UNL1        0.0147
      3 C          62.6046   84.5225   11.6014 C.3     1  UNL1        0.0490
      4 C          63.2173   83.4463   12.4476 C.3     1  UNL1        0.1942
      5 O          64.0227   83.8121   13.6592 O.3     1  UNL1       -0.4476
      6 C          64.2152   85.2541   14.0244 C.2     1  UNL1        0.3166
      7 O          65.0204   85.6199   15.2358 O.2     1  UNL1       -0.2501
      8 C          63.6024   86.3304   13.1780 C.3     1  UNL1        0.0992
      9 C          63.7949   87.7725   13.5432 C.3     1  UNL1        0.0116
     10 C          63.1822   88.8487   12.6970 C.3     1  UNL1        0.0103
     11 C          62.3769   88.4829   11.4854 C.3     1  UNL1        0.0832
     12 C          61.7642   89.5592   10.6392 C.2     1  UNL1        0.1744
     13 O          61.9567   91.0013   11.0044 O.2     1  UNL1       -0.2913
     14 C          60.9589   89.1934    9.4277 C.2     1  UNL1        0.0329
     15 C          60.7664   87.7513    9.0625 C.2     1  UNL1       -0.0232
     16 C          61.3791   86.6751    9.9088 C.3     1  UNL1        0.0266
     17 C          62.1844   87.0409   11.1202 C.3     1  UNL1        0.0142
     18 C          63.0248   82.0042   12.0824 C.ar    1  UNL1        0.0580
     19 C          63.1979   81.4100   10.7160 C.ar    1  UNL1        0.0430
     20 C          62.9054   79.9417   10.8086 C.ar    1  UNL1        0.1795
     21 O          62.5516   79.6284   12.2322 O.2     1  UNL1       -0.4475
     22 C          62.6254   80.9031   13.0194 C.ar    1  UNL1        0.1789
     23 C          62.5694   89.9250   11.8507 C.3     1  UNL1        0.1520
     24 O          63.6811   90.7149   11.2259 O.3     1  UNL1       -0.3282
     25 C          64.5334   91.6111   12.0747 C.3     1  UNL1        0.2657
     26 O          64.6472   91.3614   13.5494 O.3     1  UNL1       -0.3260
     27 C          65.4995   92.2575   14.3982 C.3     1  UNL1        0.1761
     28 C          66.2379   93.4034   13.7725 C.3     1  UNL1        0.1694
     29 O          67.0901   94.2996   14.6213 O.3     1  UNL1       -0.3794
     30 C          66.1241   93.6532   12.2977 C.3     1  UNL1        0.1715
     31 O          66.8625   94.7991   11.6719 O.3     1  UNL1       -0.3794
     32 C          65.2718   92.7570   11.4489 C.3     1  UNL1        0.1964
     33 O          65.1580   93.0067    9.9742 O.3     1  UNL1       -0.3775
     34 H          67.4937   94.9840   14.0649 H       1  UNL1        0.2105
     35 H          67.3617   95.2736   12.3549 H       1  UNL1        0.2105
     36 H          64.5735   92.3418    9.5779 H       1  UNL1        0.2106
     37 C          65.6133   92.0078   15.8730 C.3     1  UNL1        0.1693
     38 O          64.7360   92.7583   16.8307 O.3     1  UNL1       -0.3794
     39 H          64.9643   93.7007   16.8076 H       1  UNL1        0.2105
@<TRIPOS>BOND
     1     2     1    1
     2     2     3    1
     3     3     4    1
     4     4    18    1
     5    18    19   ar
     6    19    20   ar
     7    20    21   ar
     8    21    22   ar
     9     4     5    1
    10     5     6    1
    11     6     7    2
    12     6     8    1
    13     8     9    1
    14     9    10    1
    15    10    11    1
    16    11    23    1
    17    23    24    1
    18    25    24    1
    19    25    26    1
    20    26    27    1
    21    27    37    1
    22    37    38    1
    23    27    28    1
    24    28    29    1
    25    28    30    1
    26    30    31    1
    27    30    32    1
    28    32    33    1
    29    11    12    1
    30    12    13    2
    31    12    14    1
    32    14    15    2
    33    15    16    1
    34    17    16    1
    35     8     2    1
    36    17    11    1
    37    17     2    1
    38    22    18   ar
    39    32    25    1
    40    38    39    1
    41    29    34    1
    42    31    35    1
    43    33    36    1
@<TRIPOS>MOLECULE
*****
 39 43 0 0 0
SMALL
GASTEIGER

@<TRIPOS>ATOM
      1 C          61.9303   85.3388   11.0271 C.3     1  UNL1        0.0007
      2 C          62.7741   85.8058   12.1761 C.3     1  UNL1        0.0147
      3 C          62.5046   84.3420   11.9898 C.3     1  UNL1        0.0490
      4 C          63.0788   83.3453   12.9525 C.3     1  UNL1        0.1942
      5 O          63.9225   83.8124   14.1015 O.3     1  UNL1       -0.4476
      6 C          64.1920   85.2762   14.2877 C.2     1  UNL1        0.3166
      7 O          65.0356   85.7433   15.4366 O.2     1  UNL1       -0.2501
      8 C          63.6177   86.2729   13.3250 C.3     1  UNL1        0.0992
      9 C          63.8871   87.7368   13.5112 C.3     1  UNL1        0.0116
     10 C          63.3129   88.7335   12.5485 C.3     1  UNL1        0.0103
     11 C          62.4692   88.2664   11.3995 C.3     1  UNL1        0.0832
     12 C          61.8950   89.2631   10.4368 C.2     1  UNL1        0.1744
     13 O          62.1644   90.7269   10.6231 O.2     1  UNL1       -0.2913
     14 C          61.0513   88.7960    9.2880 C.2     1  UNL1        0.0329
     15 C          60.7819   87.3322    9.1017 C.2     1  UNL1       -0.0232
     16 C          61.3561   86.3355   10.0644 C.3     1  UNL1        0.0266
     17 C          62.1998   86.8026   11.2133 C.3     1  UNL1        0.0142
     18 C          62.8094   81.8815   12.7663 C.ar    1  UNL1        0.0580
     19 C          62.2930   80.9399   13.8135 C.ar    1  UNL1        0.0430
     20 C          62.1735   79.5787   13.1946 C.ar    1  UNL1        0.1795
     21 O          62.6161   79.6791   11.7649 O.2     1  UNL1       -0.4475
     22 C          63.0090   81.1023   11.5002 C.ar    1  UNL1        0.1789
     23 C          62.7386   89.7302   11.5857 C.3     1  UNL1        0.1520
     24 O          62.8668   90.2993   12.9677 O.3     1  UNL1       -0.3282
     25 C          64.0008   91.2248   13.2954 C.3     1  UNL1        0.2657
     26 O          64.7781   91.8788   12.1917 O.3     1  UNL1       -0.3260
     27 C          65.9121   92.8043   12.5195 C.3     1  UNL1        0.1761
     28 C          66.2689   93.0759   13.9508 C.3     1  UNL1        0.1694
     29 O          67.4029   94.0014   14.2786 O.3     1  UNL1       -0.3794
     30 C          65.4916   92.4219   15.0546 C.3     1  UNL1        0.1715
     31 O          65.8484   92.6935   16.4860 O.3     1  UNL1       -0.3794
     32 C          64.3576   91.4964   14.7269 C.3     1  UNL1        0.1964
     33 O          63.5803   90.8424   15.8306 O.3     1  UNL1       -0.3775
     34 H          67.4994   94.0663   15.2416 H       1  UNL1        0.2105
     35 H          66.5981   93.3080   16.5214 H       1  UNL1        0.2105
     36 H          62.8880   90.2801   15.4493 H       1  UNL1        0.2106
     37 C          66.6894   93.4583   11.4157 C.3     1  UNL1        0.1693
     38 O          66.7995   94.9532   11.3597 O.3     1  UNL1       -0.3794
     39 H          65.9243   95.3357   11.1906 H       1  UNL1        0.2105
@<TRIPOS>BOND
     1     2     1    1
     2     2     3    1
     3     3     4    1
     4     4    18    1
     5    18    19   ar
     6    19    20   ar
     7    20    21   ar
     8    21    22   ar
     9     4     5    1
    10     5     6    1
    11     6     7    2
    12     6     8    1
    13     8     9    1
    14     9    10    1
    15    10    11    1
    16    11    23    1
    17    23    24    1
    18    25    24    1
    19    25    26    1
    20    26    27    1
    21    27    37    1
    22    37    38    1
    23    27    28    1
    24    28    29    1
    25    28    30    1
    26    30    31    1
    27    30    32    1
    28    32    33    1
    29    11    12    1
    30    12    13    2
    31    12    14    1
    32    14    15    2
    33    15    16    1
    34    17    16    1
    35     8     2    1
    36    17    11    1
    37    17     2    1
    38    22    18   ar
    39    32    25    1
    40    38    39    1
    41    29    34    1
    42    31    35    1
    43    33    36    1
@<TRIPOS>MOLECULE
*****
 39 43 0 0 0
SMALL
GASTEIGER

@<TRIPOS>ATOM
      1 C          60.9722   89.9745    9.3226 C.3     1  UNL1        0.0007
      2 C          60.8159   88.5209    8.9870 C.3     1  UNL1        0.0147
      3 C          60.1797   89.5641    8.1169 C.3     1  UNL1        0.0490
      4 C          59.3871   89.1537    6.9114 C.3     1  UNL1        0.1942
      5 O          59.2308   87.7000    6.5758 O.3     1  UNL1       -0.4476
      6 C          59.8671   86.6568    7.4458 C.2     1  UNL1        0.3166
      7 O          59.7109   85.2033    7.1103 O.2     1  UNL1       -0.2501
      8 C          60.6597   87.0673    8.6514 C.3     1  UNL1        0.0992
      9 C          61.2960   86.0241    9.5214 C.3     1  UNL1        0.0116
     10 C          62.0885   86.4345   10.7270 C.3     1  UNL1        0.0103
     11 C          62.2448   87.8882   11.0626 C.3     1  UNL1        0.0832
     12 C          63.0373   88.2986   12.2681 C.2     1  UNL1        0.1744
     13 O          63.6736   87.2554   13.1381 O.2     1  UNL1       -0.2913
     14 C          63.1936   89.7522   12.6037 C.2     1  UNL1        0.0329
     15 C          62.5573   90.7954   11.7336 C.2     1  UNL1       -0.0232
     16 C          61.7648   90.3850   10.5281 C.3     1  UNL1        0.0266
     17 C          61.6085   88.9314   10.1926 C.3     1  UNL1        0.0142
     18 C          58.7508   90.1968    6.0414 C.ar    1  UNL1        0.0580
     19 C          59.4757   91.1982    5.1918 C.ar    1  UNL1        0.0430
     20 C          58.4508   92.0421    4.4935 C.ar    1  UNL1        0.1795
     21 O          57.0925   91.5622    4.9116 O.2     1  UNL1       -0.4475
     22 C          57.2780   90.4218    5.8682 C.ar    1  UNL1        0.1789
     23 C          62.8811   86.8450   11.9326 C.3     1  UNL1        0.1520
     24 O          62.0244   85.8572   12.6677 O.3     1  UNL1       -0.3282
     25 C          62.5904   84.5281   13.0717 C.3     1  UNL1        0.2657
     26 O          62.4606   83.3478   12.1552 O.3     1  UNL1       -0.3260
     27 C          63.0266   82.0187   12.5592 C.3     1  UNL1        0.1761
     28 C          63.7225   81.8699   13.8796 C.3     1  UNL1        0.1694
     29 O          64.2885   80.5409   14.2835 O.3     1  UNL1       -0.3794
     30 C          63.8523   83.0503   14.7962 C.3     1  UNL1        0.1715
     31 O          64.5482   82.9015   16.1166 O.3     1  UNL1       -0.3794
     32 C          63.2863   84.3794   14.3922 C.3     1  UNL1        0.1964
     33 O          63.4162   85.5597   15.3087 O.3     1  UNL1       -0.3775
     34 H          64.7011   80.6175   15.1580 H       1  UNL1        0.2105
     35 H          64.8517   81.9861   16.2208 H       1  UNL1        0.2105
     36 H          63.0000   86.3343   14.8992 H       1  UNL1        0.2106
     37 C          62.8967   80.8384   11.6426 C.3     1  UNL1        0.1693
     38 O          62.5406   79.4919   12.1995 O.3     1  UNL1       -0.3794
     39 H          63.2601   79.1770   12.7688 H       1  UNL1        0.2105
@<TRIPOS>BOND
     1     2     1    1
     2     2     3    1
     3     3     4    1
     4     4    18    1
     5    18    19   ar
     6    19    20   ar
     7    20    21   ar
     8    21    22   ar
     9     4     5    1
    10     5     6    1
    11     6     7    2
    12     6     8    1
    13     8     9    1
    14     9    10    1
    15    10    11    1
    16    11    23    1
    17    23    24    1
    18    25    24    1
    19    25    26    1
    20    26    27    1
    21    27    37    1
    22    37    38    1
    23    27    28    1
    24    28    29    1
    25    28    30    1
    26    30    31    1
    27    30    32    1
    28    32    33    1
    29    11    12    1
    30    12    13    2
    31    12    14    1
    32    14    15    2
    33    15    16    1
    34    17    16    1
    35     8     2    1
    36    17    11    1
    37    17     2    1
    38    22    18   ar
    39    32    25    1
    40    38    39    1
    41    29    34    1
    42    31    35    1
    43    33    36    1
@<TRIPOS>MOLECULE
*****
 39 43 0 0 0
SMALL
GASTEIGER

@<TRIPOS>ATOM
      1 C          63.7989   87.4775   13.6700 C.3     1  UNL1        0.0007
      2 C          63.2066   87.7720   12.3237 C.3     1  UNL1        0.0147
      3 C          63.1672   86.3761   12.8714 C.3     1  UNL1        0.0490
      4 C          62.5354   85.2747   12.0729 C.3     1  UNL1        0.1942
      5 O          61.9430   85.5691   10.7266 O.3     1  UNL1       -0.4476
      6 C          61.9824   86.9650   10.1789 C.2     1  UNL1        0.3166
      7 O          61.3901   87.2594    8.8326 O.2     1  UNL1       -0.2501
      8 C          62.6142   88.0664   10.9775 C.3     1  UNL1        0.0992
      9 C          62.6537   89.4623   10.4298 C.3     1  UNL1        0.0116
     10 C          63.2854   90.5637   11.2283 C.3     1  UNL1        0.0103
     11 C          63.8778   90.2693   12.5746 C.3     1  UNL1        0.0832
     12 C          64.5095   91.3707   13.3731 C.2     1  UNL1        0.1744
     13 O          64.5490   92.7666   12.8254 O.2     1  UNL1       -0.2913
     14 C          65.1019   91.0763   14.7194 C.2     1  UNL1        0.0329
     15 C          65.0624   89.6804   15.2671 C.2     1  UNL1       -0.0232
     16 C          64.4307   88.5790   14.4685 C.3     1  UNL1        0.0266
     17 C          63.8384   88.8734   13.1223 C.3     1  UNL1        0.0142
     18 C          62.4960   83.8788   12.6206 C.ar    1  UNL1        0.0580
     19 C          62.5941   82.6143   11.8197 C.ar    1  UNL1        0.0430
     20 C          62.5103   81.4563   12.7695 C.ar    1  UNL1        0.1795
     21 O          62.3604   82.0051   14.1574 O.2     1  UNL1       -0.4475
     22 C          62.3516   83.5023   14.0653 C.ar    1  UNL1        0.1789
     23 C          63.9172   91.6652   12.0269 C.3     1  UNL1        0.1520
     24 O          65.0043   92.6073   12.4521 O.3     1  UNL1       -0.3282
     25 C          65.7542   93.4005   11.4233 C.3     1  UNL1        0.2657
     26 O          65.1100   94.5921   10.7790 O.3     1  UNL1       -0.3260
     27 C          65.8599   95.3853    9.7502 C.3     1  UNL1        0.1761
     28 C          67.2539   94.9870    9.3657 C.3     1  UNL1        0.1694
     29 O          68.0038   95.7802    8.3369 O.3     1  UNL1       -0.3794
     30 C          67.8982   93.7954   10.0100 C.3     1  UNL1        0.1715
     31 O          69.2922   93.3970    9.6255 O.3     1  UNL1       -0.3794
     32 C          67.1483   93.0021   11.0388 C.3     1  UNL1        0.1964
     33 O          67.7925   91.8106   11.6831 O.3     1  UNL1       -0.3775
     34 H          68.8829   95.3916    8.2066 H       1  UNL1        0.2105
     35 H          69.6299   94.0099    8.9537 H       1  UNL1        0.2105
     36 H          67.1767   91.4147   12.3195 H       1  UNL1        0.2106
     37 C          65.2156   96.5769    9.1059 C.3     1  UNL1        0.1693
     38 O          65.1871   96.6974    7.6111 O.3     1  UNL1       -0.3794
     39 H          66.0920   96.8021    7.2778 H       1  UNL1        0.2105
@<TRIPOS>BOND
     1     2     1    1
     2     2     3    1
     3     3     4    1
     4     4    18    1
     5    18    19   ar
     6    19    20   ar
     7    20    21   ar
     8    21    22   ar
     9     4     5    1
    10     5     6    1
    11     6     7    2
    12     6     8    1
    13     8     9    1
    14     9    10    1
    15    10    11    1
    16    11    23    1
    17    23    24    1
    18    25    24    1
    19    25    26    1
    20    26    27    1
    21    27    37    1
    22    37    38    1
    23    27    28    1
    24    28    29    1
    25    28    30    1
    26    30    31    1
    27    30    32    1
    28    32    33    1
    29    11    12    1
    30    12    13    2
    31    12    14    1
    32    14    15    2
    33    15    16    1
    34    17    16    1
    35     8     2    1
    36    17    11    1
    37    17     2    1
    38    22    18   ar
    39    32    25    1
    40    38    39    1
    41    29    34    1
    42    31    35    1
    43    33    36    1
@<TRIPOS>MOLECULE
*****
 39 43 0 0 0
SMALL
GASTEIGER

@<TRIPOS>ATOM
      1 C          61.3310   89.9143    9.2946 C.3     1  UNL1        0.0007
      2 C          60.8787   88.5079    9.0343 C.3     1  UNL1        0.0147
      3 C          60.4676   89.6119    8.1057 C.3     1  UNL1        0.0490
      4 C          59.6043   89.3096    6.9170 C.3     1  UNL1        0.1942
      5 O          59.1520   87.9032    6.6567 O.3     1  UNL1       -0.4476
      6 C          59.5631   86.7992    7.5853 C.2     1  UNL1        0.3166
      7 O          59.1109   85.3929    7.3251 O.2     1  UNL1       -0.2501
      8 C          60.4265   87.1016    8.7741 C.3     1  UNL1        0.0992
      9 C          60.8376   85.9976    9.7027 C.3     1  UNL1        0.0116
     10 C          61.7009   86.3000   10.8915 C.3     1  UNL1        0.0103
     11 C          62.1531   87.7063   11.1517 C.3     1  UNL1        0.0832
     12 C          63.0164   88.0087   12.3405 C.2     1  UNL1        0.1744
     13 O          63.4275   86.9047   13.2691 O.2     1  UNL1       -0.2913
     14 C          63.4686   89.4150   12.6007 C.2     1  UNL1        0.0329
     15 C          63.0575   90.5190   11.6722 C.2     1  UNL1       -0.0232
     16 C          62.1943   90.2166   10.4834 C.3     1  UNL1        0.0266
     17 C          61.7420   88.8103   10.2232 C.3     1  UNL1        0.0142
     18 C          59.1932   90.4135    5.9884 C.ar    1  UNL1        0.0580
     19 C          60.1156   91.2599    5.1620 C.ar    1  UNL1        0.0430
     20 C          59.2800   92.2344    4.3861 C.ar    1  UNL1        0.1795
     21 O          57.8412   91.9903    4.7328 O.2     1  UNL1       -0.4475
     22 C          57.7876   90.8650    5.7231 C.ar    1  UNL1        0.1789
     23 C          62.5642   86.6024   12.0803 C.3     1  UNL1        0.1520
     24 O          63.5589   85.5742   11.6291 O.3     1  UNL1       -0.3282
     25 C          63.2756   84.1156   11.8350 C.3     1  UNL1        0.2657
     26 O          62.6966   83.6402   13.1345 O.3     1  UNL1       -0.3260
     27 C          62.4133   82.1817   13.3405 C.3     1  UNL1        0.1761
     28 C          62.7090   81.1985   12.2469 C.3     1  UNL1        0.1694
     29 O          62.4257   79.7400   12.4529 O.3     1  UNL1       -0.3794
     30 C          63.2880   81.6739   10.9473 C.3     1  UNL1        0.1715
     31 O          63.5837   80.6907    9.8538 O.3     1  UNL1       -0.3794
     32 C          63.5713   83.1324   10.7414 C.3     1  UNL1        0.1964
     33 O          64.1503   83.6078    9.4419 O.3     1  UNL1       -0.3775
     34 H          62.6725   79.2469   11.6549 H       1  UNL1        0.2105
     35 H          63.3439   79.7981   10.1480 H       1  UNL1        0.2105
     36 H          64.2707   84.5698    9.4742 H       1  UNL1        0.2106
     37 C          61.8342   81.7063   14.6400 C.3     1  UNL1        0.1693
     38 O          60.6408   80.7978   14.6416 O.3     1  UNL1       -0.3794
     39 H          59.8730   81.2718   14.2856 H       1  UNL1        0.2105
@<TRIPOS>BOND
     1     2     1    1
     2     2     3    1
     3     3     4    1
     4     4    18    1
     5    18    19   ar
     6    19    20   ar
     7    20    21   ar
     8    21    22   ar
     9     4     5    1
    10     5     6    1
    11     6     7    2
    12     6     8    1
    13     8     9    1
    14     9    10    1
    15    10    11    1
    16    11    23    1
    17    23    24    1
    18    25    24    1
    19    25    26    1
    20    26    27    1
    21    27    37    1
    22    37    38    1
    23    27    28    1
    24    28    29    1
    25    28    30    1
    26    30    31    1
    27    30    32    1
    28    32    33    1
    29    11    12    1
    30    12    13    2
    31    12    14    1
    32    14    15    2
    33    15    16    1
    34    17    16    1
    35     8     2    1
    36    17    11    1
    37    17     2    1
    38    22    18   ar
    39    32    25    1
    40    38    39    1
    41    29    34    1
    42    31    35    1
    43    33    36    1
