@<TRIPOS>MOLECULE
*****
 11 11 0 0 0
SMALL
GASTEIGER

@<TRIPOS>ATOM
      1 C          65.2748   91.3979   13.9433 C.3     1  UNL1        0.1091
      2 N          66.5584   92.0173   14.4109 N.ar    1  UNL1       -0.3078
      3 C          66.7428   92.8277   15.6596 C.ar    1  UNL1        0.0980
      4 C          68.1814   93.2463   15.7324 C.ar    1  UNL1        0.1193
      5 N          68.8861   92.6945   14.5287 N.ar    1  UNL1       -0.2223
      6 C          67.8831   91.9350   13.7120 C.ar    1  UNL1        0.1786
      7 C          64.7543   90.1582   14.6082 C.3     1  UNL1        0.0414
      8 N          63.5051   91.4933   16.4540 N.3     1  UNL1       -0.3211
      9 C          63.6496   90.2562   15.6181 C.3     1  UNL1        0.0672
     10 H          62.7080   91.3884   17.0817 H       1  UNL1        0.1189
     11 H          63.3556   92.2988   15.8462 H       1  UNL1        0.1189
@<TRIPOS>BOND
     1     8     9    1
     2     9     7    1
     3     7     1    1
     4     1     2    1
     5     2     3   ar
     6     3     4   ar
     7     4     5   ar
     8     5     6   ar
     9     6     2   ar
    10     8    10    1
    11     8    11    1
@<TRIPOS>MOLECULE
*****
 11 11 0 0 0
SMALL
GASTEIGER

@<TRIPOS>ATOM
      1 C          65.3123   92.3745   11.0445 C.3     1  UNL1        0.1091
      2 N          66.5126   92.9615   10.3628 N.ar    1  UNL1       -0.3078
      3 C          66.6265   94.3571    9.8251 C.ar    1  UNL1        0.0980
      4 C          67.9941   94.5141    9.2291 C.ar    1  UNL1        0.1193
      5 N          68.7253   93.2155    9.3984 N.ar    1  UNL1       -0.2223
      6 C          67.8097   92.2559   10.0991 C.ar    1  UNL1        0.1786
      7 C          65.2476   92.3297   12.5424 C.3     1  UNL1        0.0414
      8 N          66.1118   93.7426   14.5442 N.3     1  UNL1       -0.3211
      9 C          66.3863   92.8656   13.3586 C.3     1  UNL1        0.0672
     10 H          66.9941   94.0135   14.9783 H       1  UNL1        0.1189
     11 H          65.5428   93.2327   15.2199 H       1  UNL1        0.1189
@<TRIPOS>BOND
     1     8     9    1
     2     9     7    1
     3     7     1    1
     4     1     2    1
     5     2     3   ar
     6     3     4   ar
     7     4     5   ar
     8     5     6   ar
     9     6     2   ar
    10     8    10    1
    11     8    11    1
@<TRIPOS>MOLECULE
*****
 11 11 0 0 0
SMALL
GASTEIGER

@<TRIPOS>ATOM
      1 C          65.4819   92.5168   12.7269 C.3     1  UNL1        0.1091
      2 N          66.1667   93.3075   11.6518 N.ar    1  UNL1       -0.3078
      3 C          66.8212   92.7451   10.4249 C.ar    1  UNL1        0.0980
      4 C          67.3761   93.8895    9.6296 C.ar    1  UNL1        0.1193
      5 N          67.0646   95.1592   10.3650 N.ar    1  UNL1       -0.2223
      6 C          66.3171   94.7995   11.6148 C.ar    1  UNL1        0.1786
      7 C          66.2924   91.6962   13.6859 C.3     1  UNL1        0.0414
      8 N          68.8550   91.7023   13.2581 N.3     1  UNL1       -0.3211
      9 C          67.6727   92.1390   14.0715 C.3     1  UNL1        0.0672
     10 H          69.7072   92.0928   13.6602 H       1  UNL1        0.1189
     11 H          68.7489   92.0332   12.2992 H       1  UNL1        0.1189
@<TRIPOS>BOND
     1     8     9    1
     2     9     7    1
     3     7     1    1
     4     1     2    1
     5     2     3   ar
     6     3     4   ar
     7     4     5   ar
     8     5     6   ar
     9     6     2   ar
    10     8    10    1
    11     8    11    1
@<TRIPOS>MOLECULE
*****
 11 11 0 0 0
SMALL
GASTEIGER

@<TRIPOS>ATOM
      1 C          63.5412   82.0452   13.5743 C.3     1  UNL1        0.1091
      2 N          63.5641   83.3544   14.3062 N.ar    1  UNL1       -0.3078
      3 C          64.6997   84.3341   14.3252 C.ar    1  UNL1        0.0980
      4 C          64.2929   85.4989   15.1784 C.ar    1  UNL1        0.1193
      5 N          62.9058   85.2390   15.6867 N.ar    1  UNL1       -0.2223
      6 C          62.4554   83.9136   15.1477 C.ar    1  UNL1        0.1786
      7 C          62.8399   81.9370   12.2528 C.3     1  UNL1        0.0414
      8 N          64.9502   82.8229   11.0234 N.3     1  UNL1       -0.3211
      9 C          63.5963   82.1785   10.9803 C.3     1  UNL1        0.0672
     10 H          65.3160   82.9093   10.0751 H       1  UNL1        0.1189
     11 H          65.5826   82.2486   11.5807 H       1  UNL1        0.1189
@<TRIPOS>BOND
     1     8     9    1
     2     9     7    1
     3     7     1    1
     4     1     2    1
     5     2     3   ar
     6     3     4   ar
     7     4     5   ar
     8     5     6   ar
     9     6     2   ar
    10     8    10    1
    11     8    11    1
@<TRIPOS>MOLECULE
*****
 11 11 0 0 0
SMALL
GASTEIGER

@<TRIPOS>ATOM
      1 C          63.9494   82.5301   11.9751 C.3     1  UNL1        0.1091
      2 N          63.9308   83.7748   12.8121 N.ar    1  UNL1       -0.3078
      3 C          64.7510   84.0216   14.0435 C.ar    1  UNL1        0.0980
      4 C          64.4158   85.3906   14.5570 C.ar    1  UNL1        0.1193
      5 N          63.3885   85.9898   13.6429 N.ar    1  UNL1       -0.2223
      6 C          63.0888   84.9912   12.5645 C.ar    1  UNL1        0.1786
      7 C          62.9120   81.4678   12.1877 C.3     1  UNL1        0.0414
      8 N          62.1170   81.3861   14.6598 N.3     1  UNL1       -0.3211
      9 C          62.8306   80.7515   13.5030 C.3     1  UNL1        0.0672
     10 H          62.1591   80.7648   15.4676 H       1  UNL1        0.1189
     11 H          61.1424   81.5517   14.4087 H       1  UNL1        0.1189
@<TRIPOS>BOND
     1     8     9    1
     2     9     7    1
     3     7     1    1
     4     1     2    1
     5     2     3   ar
     6     3     4   ar
     7     4     5   ar
     8     5     6   ar
     9     6     2   ar
    10     8    10    1
    11     8    11    1
@<TRIPOS>MOLECULE
*****
 11 11 0 0 0
SMALL
GASTEIGER

@<TRIPOS>ATOM
      1 C          62.5891   84.0682   15.4835 C.3     1  UNL1        0.1091
      2 N          62.9952   83.0691   14.4410 N.ar    1  UNL1       -0.3078
      3 C          62.2983   81.7750   14.1411 C.ar    1  UNL1        0.0980
      4 C          63.0418   81.0947   13.0301 C.ar    1  UNL1        0.1193
      5 N          64.1982   81.9683   12.6432 N.ar    1  UNL1       -0.2223
      6 C          64.1693   83.1885   13.5152 C.ar    1  UNL1        0.1786
      7 C          63.5100   85.1977   15.8387 C.3     1  UNL1        0.0414
      8 N          61.6870   86.2905   17.3329 N.3     1  UNL1       -0.3211
      9 C          63.1212   86.1741   16.9090 C.3     1  UNL1        0.0672
     10 H          61.6049   86.9966   18.0645 H       1  UNL1        0.1189
     11 H          61.3641   85.3914   17.6904 H       1  UNL1        0.1189
@<TRIPOS>BOND
     1     8     9    1
     2     9     7    1
     3     7     1    1
     4     1     2    1
     5     2     3   ar
     6     3     4   ar
     7     4     5   ar
     8     5     6   ar
     9     6     2   ar
    10     8    10    1
    11     8    11    1
@<TRIPOS>MOLECULE
*****
 11 11 0 0 0
SMALL
GASTEIGER

@<TRIPOS>ATOM
      1 C          65.6901   92.8107   12.4896 C.3     1  UNL1        0.1091
      2 N          66.4839   93.3606   11.3418 N.ar    1  UNL1       -0.3078
      3 C          67.2783   92.5580   10.3545 C.ar    1  UNL1        0.0980
      4 C          67.9081   93.5109    9.3822 C.ar    1  UNL1        0.1193
      5 N          67.5030   94.9025    9.7687 N.ar    1  UNL1       -0.2223
      6 C          66.6228   94.8096   10.9798 C.ar    1  UNL1        0.1786
      7 C          64.6139   91.7962   12.2394 C.3     1  UNL1        0.0414
      8 N          63.3991   91.2048   14.4585 N.3     1  UNL1       -0.3211
      9 C          64.2631   90.7973   13.3020 C.3     1  UNL1        0.0672
     10 H          63.2633   90.4068   15.0793 H       1  UNL1        0.1189
     11 H          62.4943   91.5232   14.1114 H       1  UNL1        0.1189
@<TRIPOS>BOND
     1     8     9    1
     2     9     7    1
     3     7     1    1
     4     1     2    1
     5     2     3   ar
     6     3     4   ar
     7     4     5   ar
     8     5     6   ar
     9     6     2   ar
    10     8    10    1
    11     8    11    1
@<TRIPOS>MOLECULE
*****
 11 11 0 0 0
SMALL
GASTEIGER

@<TRIPOS>ATOM
      1 C          62.6402   84.7654   12.4152 C.3     1  UNL1        0.1091
      2 N          62.5986   83.3648   12.9506 N.ar    1  UNL1       -0.3078
      3 C          62.6291   82.1072   12.1335 C.ar    1  UNL1        0.0980
      4 C          62.5685   80.9411   13.0750 C.ar    1  UNL1        0.1193
      5 N          62.5004   81.4779   14.4740 N.ar    1  UNL1       -0.2223
      6 C          62.5190   82.9758   14.3971 C.ar    1  UNL1        0.1786
      7 C          62.4559   85.0130   10.9474 C.3     1  UNL1        0.0414
      8 N          60.7979   86.9455   11.4637 N.3     1  UNL1       -0.3211
      9 C          61.4521   86.0238   10.4775 C.3     1  UNL1        0.0672
     10 H          60.1487   87.5615   10.9744 H       1  UNL1        0.1189
     11 H          61.5112   87.5053   11.9309 H       1  UNL1        0.1189
@<TRIPOS>BOND
     1     8     9    1
     2     9     7    1
     3     7     1    1
     4     1     2    1
     5     2     3   ar
     6     3     4   ar
     7     4     5   ar
     8     5     6   ar
     9     6     2   ar
    10     8    10    1
    11     8    11    1
@<TRIPOS>MOLECULE
*****
 11 11 0 0 0
SMALL
GASTEIGER

@<TRIPOS>ATOM
      1 C          65.4704   92.3472   12.3310 C.3     1  UNL1        0.1091
      2 N          66.5704   92.5965   13.3199 N.ar    1  UNL1       -0.3078
      3 C          66.5206   93.5578   14.4703 C.ar    1  UNL1        0.0980
      4 C          67.8327   93.4838   15.1934 C.ar    1  UNL1        0.1193
      5 N          68.6934   92.4766   14.4900 N.ar    1  UNL1       -0.2223
      6 C          67.9132   91.9283   13.3321 C.ar    1  UNL1        0.1786
      7 C          65.4463   93.0958   11.0315 C.3     1  UNL1        0.0414
      8 N          67.5441   94.4027   10.2306 N.3     1  UNL1       -0.3211
      9 C          66.1993   94.3859   10.8950 C.3     1  UNL1        0.0672
     10 H          67.9087   95.3553   10.2249 H       1  UNL1        0.1189
     11 H          67.4537   94.0674    9.2715 H       1  UNL1        0.1189
@<TRIPOS>BOND
     1     8     9    1
     2     9     7    1
     3     7     1    1
     4     1     2    1
     5     2     3   ar
     6     3     4   ar
     7     4     5   ar
     8     5     6   ar
     9     6     2   ar
    10     8    10    1
    11     8    11    1
