@<TRIPOS>MOLECULE
*****
 42 45 0 0 0
SMALL
GASTEIGER

@<TRIPOS>ATOM
      1 N          63.2215   86.4772   12.8633 N.pl3   1  UNL1       -0.3043
      2 C          64.3042   87.1106   13.6859 C.3     1  UNL1        0.1123
      3 C          64.6063   88.5716   13.5309 C.3     1  UNL1        0.1149
      4 N          63.8257   89.3994   12.5534 N.am    1  UNL1       -0.2747
      5 C          64.1279   90.8604   12.3984 C.2     1  UNL1        0.2442
      6 O          63.3473   91.6881   11.4209 O.2     1  UNL1       -0.2731
      7 C          62.7430   88.7661   11.7308 C.3     1  UNL1        0.1149
      8 C          62.4409   87.3049   11.8858 C.3     1  UNL1        0.1123
      9 C          63.0051   84.3718   14.3701 C.ar    1  UNL1        0.0050
     10 C          62.7030   82.9108   14.5250 C.ar    1  UNL1        0.0021
     11 C          62.3152   82.0941   13.3281 C.ar    1  UNL1        0.0712
     12 C          62.2294   82.7384   11.9763 C.ar    1  UNL1        0.0051
     13 C          62.5315   84.1994   11.8214 C.ar    1  UNL1        0.0142
     14 C          62.9194   85.0161   13.0183 C.ar    1  UNL1        0.0451
     15 C          63.3930   85.1885   15.5670 C.3     1  UNL1        0.0748
     16 N          64.8416   85.4197   15.8797 N.3     1  UNL1       -0.3188
     17 H          64.9209   85.9912   16.7209 H       1  UNL1        0.1191
     18 H          65.2855   85.9019   15.0981 H       1  UNL1        0.1191
     19 C          62.3321   85.7740   16.4511 C.3     1  UNL1        0.0201
     20 C          62.7240   86.6563   18.8632 C.3     1  UNL1        0.0001
     21 C          62.6700   86.8991   17.3839 C.3     1  UNL1        0.0017
     22 C          62.9539   88.2668   16.8375 C.3     1  UNL1        0.0001
     23 C          62.0131   80.6329   13.4831 C.3     1  UNL1        0.4186
     24 F          61.7109   79.1719   13.6381 F       1  UNL1       -0.1659
     25 F          60.9833   80.9564   14.5246 F       1  UNL1       -0.1659
     26 F          63.0429   80.3095   12.4415 F       1  UNL1       -0.1659
     27 C          65.2106   91.4938   13.2210 C.3     1  UNL1        0.1564
     28 N          64.9826   91.7672   14.6781 N.am    1  UNL1       -0.2727
     29 C          63.8094   91.3029   15.4894 C.3     1  UNL1        0.0943
     30 C          63.9895   91.8017   16.8925 C.3     1  UNL1        0.0311
     31 C          65.2741   92.5742   16.9486 C.3     1  UNL1        0.0870
     32 C          65.8879   92.5528   15.5800 C.2     1  UNL1        0.2260
     33 O          67.1800   93.2030   15.1830 O.2     1  UNL1       -0.2749
     34 C          66.5212   91.8537   12.5865 C.3     1  UNL1        0.0564
     35 C          66.6248   93.0733   11.7194 C.ar    1  UNL1       -0.0094
     36 C          65.9926   94.3611   12.1577 C.ar    1  UNL1       -0.0025
     37 C          66.0962   95.5807   11.2906 C.ar    1  UNL1        0.0111
     38 C          66.8320   95.5125    9.9853 C.ar    1  UNL1        0.0585
     39 CL         66.9356   96.7322    9.1182 Cl      1  UNL1       -0.0822
     40 C          67.4642   94.2248    9.5470 C.ar    1  UNL1        0.0225
     41 C          67.3606   93.0052   10.4140 C.ar    1  UNL1        0.0546
     42 CL         67.9927   91.7175    9.9757 Cl      1  UNL1       -0.0825
@<TRIPOS>BOND
     1    20    21    1
     2    21    22    1
     3    21    19    1
     4    19    15    1
     5    15    16    1
     6    15     9    1
     7     9    10   ar
     8    10    11   ar
     9    11    23    1
    10    23    24    1
    11    23    25    1
    12    23    26    1
    13    11    12   ar
    14    12    13   ar
    15    13    14   ar
    16    14     1    1
    17     1     2    1
    18     2     3    1
    19     3     4    1
    20     4     5   am
    21     5     6    2
    22     5    27    1
    23    27    34    1
    24    34    35    1
    25    35    36   ar
    26    36    37   ar
    27    37    38   ar
    28    38    39    1
    29    38    40   ar
    30    40    41   ar
    31    41    42    1
    32    27    28    1
    33    28    29    1
    34    29    30    1
    35    30    31    1
    36    31    32    1
    37    32    33    2
    38     4     7    1
    39     7     8    1
    40    14     9   ar
    41     8     1    1
    42    41    35   ar
    43    32    28   am
    44    16    17    1
    45    16    18    1
@<TRIPOS>MOLECULE
*****
 42 45 0 0 0
SMALL
GASTEIGER

@<TRIPOS>ATOM
      1 N          56.9717   95.3493   -1.1739 N.pl3   1  UNL1       -0.3043
      2 C          57.4585   93.9660   -0.8584 C.3     1  UNL1        0.1123
      3 C          58.7163   93.7767   -0.0636 C.3     1  UNL1        0.1149
      4 N          59.4875   94.9707    0.4158 N.am    1  UNL1       -0.2747
      5 C          60.7454   94.7814    1.2106 C.2     1  UNL1        0.2442
      6 O          61.5166   95.9753    1.6899 O.2     1  UNL1       -0.2731
      7 C          59.0008   96.3540    0.1002 C.3     1  UNL1        0.1149
      8 C          57.7428   96.5432   -0.6947 C.3     1  UNL1        0.1123
      9 C          55.7584   95.4866   -3.4672 C.ar    1  UNL1        0.0050
     10 C          54.5004   95.6759   -4.2620 C.ar    1  UNL1        0.0021
     11 C          53.1979   95.9171   -3.5584 C.ar    1  UNL1        0.0712
     12 C          53.1532   95.9691   -2.0600 C.ar    1  UNL1        0.0051
     13 C          54.4111   95.7798   -1.2652 C.ar    1  UNL1        0.0142
     14 C          55.7137   95.5385   -1.9688 C.ar    1  UNL1        0.0451
     15 C          57.0610   95.2453   -4.1708 C.3     1  UNL1        0.0748
     16 N          57.8300   96.3997   -4.7417 N.3     1  UNL1       -0.3188
     17 H          58.6840   96.0555   -5.1807 H       1  UNL1        0.1191
     18 H          58.0706   97.0508   -3.9943 H       1  UNL1        0.1191
     19 C          57.5945   93.8498   -4.3036 C.3     1  UNL1        0.0201
     20 C          56.0094   92.6824   -5.9992 C.3     1  UNL1        0.0001
     21 C          56.6681   92.7227   -4.6521 C.3     1  UNL1        0.0017
     22 C          56.4003   91.6358   -3.6536 C.3     1  UNL1        0.0001
     23 C          51.9399   96.1064   -4.3533 C.3     1  UNL1        0.4186
     24 F          50.6820   96.2956   -5.1482 F       1  UNL1       -0.1659
     25 F          52.7548   96.5024   -5.5487 F       1  UNL1       -0.1659
     26 F          51.1249   95.7104   -3.1579 F       1  UNL1       -0.1659
     27 C          61.2322   93.3981    1.5262 C.3     1  UNL1        0.1564
     28 N          60.7743   92.7091    2.7774 N.am    1  UNL1       -0.2727
     29 C          59.3829   92.7312    3.3374 C.3     1  UNL1        0.0943
     30 C          59.3761   91.9128    4.5945 C.3     1  UNL1        0.0311
     31 C          60.7633   91.3848    4.8114 C.3     1  UNL1        0.0870
     32 C          61.6274   91.8770    3.6883 C.2     1  UNL1        0.2260
     33 O          63.0882   91.5878    3.5080 O.2     1  UNL1       -0.2749
     34 C          62.1769   92.7038    0.5905 C.3     1  UNL1        0.0564
     35 C          62.8709   93.4814   -0.4883 C.ar    1  UNL1       -0.0094
     36 C          62.3504   93.4418   -1.8945 C.ar    1  UNL1       -0.0025
     37 C          63.0444   94.2194   -2.9733 C.ar    1  UNL1        0.0111
     38 C          64.2588   95.0367   -2.6458 C.ar    1  UNL1        0.0585
     39 CL         64.9528   95.8143   -3.7245 Cl      1  UNL1       -0.0822
     40 C          64.7792   95.0763   -1.2395 C.ar    1  UNL1        0.0225
     41 C          64.0853   94.2987   -0.1608 C.ar    1  UNL1        0.0546
     42 CL         64.6057   94.3383    1.2455 Cl      1  UNL1       -0.0825
@<TRIPOS>BOND
     1    20    21    1
     2    21    22    1
     3    21    19    1
     4    19    15    1
     5    15    16    1
     6    15     9    1
     7     9    10   ar
     8    10    11   ar
     9    11    23    1
    10    23    24    1
    11    23    25    1
    12    23    26    1
    13    11    12   ar
    14    12    13   ar
    15    13    14   ar
    16    14     1    1
    17     1     2    1
    18     2     3    1
    19     3     4    1
    20     4     5   am
    21     5     6    2
    22     5    27    1
    23    27    34    1
    24    34    35    1
    25    35    36   ar
    26    36    37   ar
    27    37    38   ar
    28    38    39    1
    29    38    40   ar
    30    40    41   ar
    31    41    42    1
    32    27    28    1
    33    28    29    1
    34    29    30    1
    35    30    31    1
    36    31    32    1
    37    32    33    2
    38     4     7    1
    39     7     8    1
    40    14     9   ar
    41     8     1    1
    42    41    35   ar
    43    32    28   am
    44    16    17    1
    45    16    18    1
@<TRIPOS>MOLECULE
*****
 42 45 0 0 0
SMALL
GASTEIGER

@<TRIPOS>ATOM
      1 N          61.7000   86.1637    9.4579 N.pl3   1  UNL1       -0.3043
      2 C          61.3247   85.8660   10.8794 C.3     1  UNL1        0.1123
      3 C          62.1287   84.8825   11.6771 C.3     1  UNL1        0.1149
      4 N          63.3079   84.1967   11.0533 N.am    1  UNL1       -0.2747
      5 C          64.1119   83.2132   11.8510 C.2     1  UNL1        0.2442
      6 O          65.2911   82.5273   11.2272 O.2     1  UNL1       -0.2731
      7 C          63.6832   84.4943    9.6318 C.3     1  UNL1        0.1149
      8 C          62.8791   85.4779    8.8341 C.3     1  UNL1        0.1123
      9 C          60.7190   88.5508    9.1588 C.ar    1  UNL1        0.0050
     10 C          59.9150   89.5343    8.3611 C.ar    1  UNL1        0.0021
     11 C          59.2879   89.1142    7.0649 C.ar    1  UNL1        0.0712
     12 C          59.4649   87.7106    6.5663 C.ar    1  UNL1        0.0051
     13 C          60.2688   86.7271    7.3640 C.ar    1  UNL1        0.0142
     14 C          60.8959   87.1472    8.6602 C.ar    1  UNL1        0.0451
     15 C          61.3461   88.9709   10.4550 C.3     1  UNL1        0.0748
     16 N          60.4981   89.1277   11.6823 N.3     1  UNL1       -0.3188
     17 H          61.0840   89.4162   12.4658 H       1  UNL1        0.1191
     18 H          60.0504   88.2380   11.9022 H       1  UNL1        0.1191
     19 C          62.8212   89.2343   10.5240 C.3     1  UNL1        0.0201
     20 C          63.6400   90.6040   12.5742 C.3     1  UNL1        0.0001
     21 C          63.3270   90.5193   11.1097 C.3     1  UNL1        0.0017
     22 C          63.5199   91.7194   10.2308 C.3     1  UNL1        0.0001
     23 C          58.4839   90.0977    6.2672 C.3     1  UNL1        0.4186
     24 F          57.6799   91.0812    5.4695 F       1  UNL1       -0.1659
     25 F          57.2178   89.4586    6.7554 F       1  UNL1       -0.1659
     26 F          59.7500   90.7368    5.7789 F       1  UNL1       -0.1659
     27 C          63.7367   82.9155   13.2725 C.3     1  UNL1        0.1564
     28 N          62.5831   82.0036   13.5685 N.am    1  UNL1       -0.2727
     29 C          61.4924   82.2570   14.5666 C.3     1  UNL1        0.0943
     30 C          60.5528   81.0883   14.5334 C.3     1  UNL1        0.0311
     31 C          61.0627   80.1124   13.5146 C.3     1  UNL1        0.0870
     32 C          62.3176   80.6782   12.9183 C.2     1  UNL1        0.2260
     33 O          63.1590   80.0319   11.8580 O.2     1  UNL1       -0.2749
     34 C          64.5151   83.5297   14.3980 C.3     1  UNL1        0.0564
     35 C          64.1906   84.9180   14.8643 C.ar    1  UNL1       -0.0094
     36 C          64.7380   86.1040   14.1268 C.ar    1  UNL1       -0.0025
     37 C          64.4136   87.4923   14.5930 C.ar    1  UNL1        0.0111
     38 C          63.5418   87.6946   15.7968 C.ar    1  UNL1        0.0585
     39 CL         63.2174   89.0829   16.2631 Cl      1  UNL1       -0.0822
     40 C          62.9945   86.5086   16.5343 C.ar    1  UNL1        0.0225
     41 C          63.3189   85.1204   16.0681 C.ar    1  UNL1        0.0546
     42 CL         62.7715   83.9344   16.8056 Cl      1  UNL1       -0.0825
@<TRIPOS>BOND
     1    20    21    1
     2    21    22    1
     3    21    19    1
     4    19    15    1
     5    15    16    1
     6    15     9    1
     7     9    10   ar
     8    10    11   ar
     9    11    23    1
    10    23    24    1
    11    23    25    1
    12    23    26    1
    13    11    12   ar
    14    12    13   ar
    15    13    14   ar
    16    14     1    1
    17     1     2    1
    18     2     3    1
    19     3     4    1
    20     4     5   am
    21     5     6    2
    22     5    27    1
    23    27    34    1
    24    34    35    1
    25    35    36   ar
    26    36    37   ar
    27    37    38   ar
    28    38    39    1
    29    38    40   ar
    30    40    41   ar
    31    41    42    1
    32    27    28    1
    33    28    29    1
    34    29    30    1
    35    30    31    1
    36    31    32    1
    37    32    33    2
    38     4     7    1
    39     7     8    1
    40    14     9   ar
    41     8     1    1
    42    41    35   ar
    43    32    28   am
    44    16    17    1
    45    16    18    1
@<TRIPOS>MOLECULE
*****
 42 45 0 0 0
SMALL
GASTEIGER

@<TRIPOS>ATOM
      1 N          63.1767   86.4502   12.8907 N.pl3   1  UNL1       -0.3043
      2 C          64.2368   87.0802   13.7448 C.3     1  UNL1        0.1123
      3 C          64.5587   88.5368   13.5880 C.3     1  UNL1        0.1149
      4 N          63.8206   89.3635   12.5771 N.am    1  UNL1       -0.2747
      5 C          64.1426   90.8201   12.4203 C.2     1  UNL1        0.2442
      6 O          63.4045   91.6467   11.4094 O.2     1  UNL1       -0.2731
      7 C          62.7606   88.7335   11.7230 C.3     1  UNL1        0.1149
      8 C          62.4386   87.2769   11.8798 C.3     1  UNL1        0.1123
      9 C          62.5882   84.1498   11.8364 C.ar    1  UNL1        0.0050
     10 C          62.2663   82.6932   11.9933 C.ar    1  UNL1        0.0021
     11 C          62.2109   82.0804   13.3613 C.ar    1  UNL1        0.0712
     12 C          62.4775   82.9242   14.5724 C.ar    1  UNL1        0.0051
     13 C          62.7994   84.3808   14.4155 C.ar    1  UNL1        0.0142
     14 C          62.8548   84.9936   13.0475 C.ar    1  UNL1        0.0451
     15 C          62.6435   84.7625   10.4684 C.3     1  UNL1        0.0748
     16 N          63.8472   84.5493    9.5992 N.3     1  UNL1       -0.3188
     17 H          63.7155   85.0336    8.7112 H       1  UNL1        0.1191
     18 H          63.9701   83.5515    9.4274 H       1  UNL1        0.1191
     19 C          61.4951   85.5885    9.9696 C.3     1  UNL1        0.0201
     20 C          60.4462   86.9703    8.0355 C.3     1  UNL1        0.0001
     21 C          61.3587   85.8756    8.5036 C.3     1  UNL1        0.0017
     22 C          62.1346   85.0679    7.5059 C.3     1  UNL1        0.0001
     23 C          61.8890   80.6237   13.5181 C.3     1  UNL1        0.4186
     24 F          61.5670   79.1671   13.6750 F       1  UNL1       -0.1659
     25 F          60.8437   80.9646   14.5384 F       1  UNL1       -0.1659
     26 F          62.9343   80.2828   12.4979 F       1  UNL1       -0.1659
     27 C          65.2026   91.4501   13.2743 C.3     1  UNL1        0.1564
     28 N          64.9443   91.6952   14.7314 N.am    1  UNL1       -0.2727
     29 C          63.7828   91.1692   15.5216 C.3     1  UNL1        0.0943
     30 C          63.9227   91.6583   16.9327 C.3     1  UNL1        0.0311
     31 C          65.1706   92.4865   17.0147 C.3     1  UNL1        0.0870
     32 C          65.8020   92.5093   15.6542 C.2     1  UNL1        0.2260
     33 O          67.0687   93.2213   15.2819 O.2     1  UNL1       -0.2749
     34 C          66.5210   91.8350   12.6713 C.3     1  UNL1        0.0564
     35 C          66.6151   93.0364   11.7780 C.ar    1  UNL1       -0.0094
     36 C          66.0073   94.3390   12.2067 C.ar    1  UNL1       -0.0025
     37 C          66.1013   95.5404   11.3135 C.ar    1  UNL1        0.0111
     38 C          66.8031   95.4391    9.9917 C.ar    1  UNL1        0.0585
     39 CL         66.8972   96.6405    9.0984 Cl      1  UNL1       -0.0822
     40 C          67.4108   94.1365    9.5631 C.ar    1  UNL1        0.0225
     41 C          67.3168   92.9351   10.4562 C.ar    1  UNL1        0.0546
     42 CL         67.9246   91.6324   10.0276 Cl      1  UNL1       -0.0825
@<TRIPOS>BOND
     1    20    21    1
     2    21    22    1
     3    21    19    1
     4    19    15    1
     5    15    16    1
     6    15     9    1
     7     9    10   ar
     8    10    11   ar
     9    11    23    1
    10    23    24    1
    11    23    25    1
    12    23    26    1
    13    11    12   ar
    14    12    13   ar
    15    13    14   ar
    16    14     1    1
    17     1     2    1
    18     2     3    1
    19     3     4    1
    20     4     5   am
    21     5     6    2
    22     5    27    1
    23    27    34    1
    24    34    35    1
    25    35    36   ar
    26    36    37   ar
    27    37    38   ar
    28    38    39    1
    29    38    40   ar
    30    40    41   ar
    31    41    42    1
    32    27    28    1
    33    28    29    1
    34    29    30    1
    35    30    31    1
    36    31    32    1
    37    32    33    2
    38     4     7    1
    39     7     8    1
    40    14     9   ar
    41     8     1    1
    42    41    35   ar
    43    32    28   am
    44    16    17    1
    45    16    18    1
@<TRIPOS>MOLECULE
*****
 42 45 0 0 0
SMALL
GASTEIGER

@<TRIPOS>ATOM
      1 N          64.2668   90.8638   12.6730 N.pl3   1  UNL1       -0.3043
      2 C          64.2854   89.3639   12.6734 C.3     1  UNL1        0.1123
      3 C          63.2819   88.6011   11.8605 C.3     1  UNL1        0.1149
      4 N          62.2595   89.3382   11.0471 N.am    1  UNL1       -0.2747
      5 C          61.2559   88.5754   10.2341 C.2     1  UNL1        0.2442
      6 O          60.2336   89.3125    9.4208 O.2     1  UNL1       -0.2731
      7 C          62.2408   90.8381   11.0466 C.3     1  UNL1        0.1149
      8 C          63.2445   91.6009   11.8596 C.3     1  UNL1        0.1123
      9 C          66.1488   92.6483   12.8268 C.ar    1  UNL1        0.0050
     10 C          67.1524   93.4110   13.6398 C.ar    1  UNL1        0.0021
     11 C          67.2776   93.1521   15.1120 C.ar    1  UNL1        0.0712
     12 C          66.3992   92.1303   15.7711 C.ar    1  UNL1        0.0051
     13 C          65.3957   91.3676   14.9581 C.ar    1  UNL1        0.0142
     14 C          65.2704   91.6266   13.4860 C.ar    1  UNL1        0.0451
     15 C          66.0235   92.9073   11.3547 C.3     1  UNL1        0.0748
     16 N          65.0148   93.8962   10.8503 N.3     1  UNL1       -0.3188
     17 H          65.0668   93.9460    9.8328 H       1  UNL1        0.1191
     18 H          65.2123   94.8153   11.2462 H       1  UNL1        0.1191
     19 C          66.9070   92.1773   10.3869 C.3     1  UNL1        0.0201
     20 C          68.9998   92.2239    8.8480 C.3     1  UNL1        0.0001
     21 C          67.8723   92.9410    9.5296 C.3     1  UNL1        0.0017
     22 C          67.7100   94.4218    9.3537 C.3     1  UNL1        0.0001
     23 C          68.2813   93.9149   15.9250 C.3     1  UNL1        0.4186
     24 F          69.2849   94.6776   16.7379 F       1  UNL1       -0.1659
     25 F          68.6053   92.6686   16.6942 F       1  UNL1       -0.1659
     26 F          67.9572   95.1611   15.1557 F       1  UNL1       -0.1659
     27 C          61.2746   87.0755   10.2346 C.3     1  UNL1        0.1564
     28 N          61.3087   86.3255    8.9360 N.am    1  UNL1       -0.2727
     29 C          62.5068   85.6464    8.3412 C.3     1  UNL1        0.0943
     30 C          62.0893   85.0241    7.0418 C.3     1  UNL1        0.0311
     31 C          60.6333   85.3185    6.8335 C.3     1  UNL1        0.0870
     32 C          60.1509   86.1228    8.0042 C.2     1  UNL1        0.2260
     33 O          58.7556   86.6346    8.2073 O.2     1  UNL1       -0.2749
     34 C          61.2592   86.3256   11.5336 C.3     1  UNL1        0.0564
     35 C          62.1711   85.1513   11.7326 C.ar    1  UNL1       -0.0094
     36 C          62.1330   84.0008   10.7709 C.ar    1  UNL1       -0.0025
     37 C          63.0448   82.8265   10.9699 C.ar    1  UNL1        0.0111
     38 C          63.9948   82.8028   12.1305 C.ar    1  UNL1        0.0585
     39 CL         64.9067   81.6285   12.3295 Cl      1  UNL1       -0.0822
     40 C          64.0329   83.9534   13.0921 C.ar    1  UNL1        0.0225
     41 C          63.1210   85.1276   12.8931 C.ar    1  UNL1        0.0546
     42 CL         63.1591   86.2782   13.8548 Cl      1  UNL1       -0.0825
@<TRIPOS>BOND
     1    20    21    1
     2    21    22    1
     3    21    19    1
     4    19    15    1
     5    15    16    1
     6    15     9    1
     7     9    10   ar
     8    10    11   ar
     9    11    23    1
    10    23    24    1
    11    23    25    1
    12    23    26    1
    13    11    12   ar
    14    12    13   ar
    15    13    14   ar
    16    14     1    1
    17     1     2    1
    18     2     3    1
    19     3     4    1
    20     4     5   am
    21     5     6    2
    22     5    27    1
    23    27    34    1
    24    34    35    1
    25    35    36   ar
    26    36    37   ar
    27    37    38   ar
    28    38    39    1
    29    38    40   ar
    30    40    41   ar
    31    41    42    1
    32    27    28    1
    33    28    29    1
    34    29    30    1
    35    30    31    1
    36    31    32    1
    37    32    33    2
    38     4     7    1
    39     7     8    1
    40    14     9   ar
    41     8     1    1
    42    41    35   ar
    43    32    28   am
    44    16    17    1
    45    16    18    1
@<TRIPOS>MOLECULE
*****
 42 45 0 0 0
SMALL
GASTEIGER

@<TRIPOS>ATOM
      1 N          62.5214   93.9139    0.0726 N.pl3   1  UNL1       -0.3043
      2 C          62.0626   93.5987   -1.3204 C.3     1  UNL1        0.1123
      3 C          62.7786   94.1911   -2.4978 C.3     1  UNL1        0.1149
      4 N          63.9533   95.0987   -2.2824 N.am    1  UNL1       -0.2747
      5 C          64.6693   95.6910   -3.4599 C.2     1  UNL1        0.2442
      6 O          65.8439   96.5985   -3.2445 O.2     1  UNL1       -0.2731
      7 C          64.4121   95.4138   -0.8895 C.3     1  UNL1        0.1149
      8 C          63.6961   94.8214    0.2880 C.3     1  UNL1        0.1123
      9 C          60.3917   93.7244    1.5486 C.ar    1  UNL1        0.0050
     10 C          59.6758   93.1320    2.7261 C.ar    1  UNL1        0.0021
     11 C          60.3735   92.1367    3.6050 C.ar    1  UNL1        0.0712
     12 C          61.7872   91.7337    3.3064 C.ar    1  UNL1        0.0051
     13 C          62.5031   92.3261    2.1290 C.ar    1  UNL1        0.0142
     14 C          61.8054   93.3215    1.2501 C.ar    1  UNL1        0.0451
     15 C          59.6940   94.7198    0.6697 C.3     1  UNL1        0.0748
     16 N          59.4875   96.1267    1.1470 N.3     1  UNL1       -0.3188
     17 H          59.0006   96.6617    0.4279 H       1  UNL1        0.1191
     18 H          60.3923   96.5575    1.3372 H       1  UNL1        0.1191
     19 C          59.2028   94.3082   -0.6864 C.3     1  UNL1        0.0201
     20 C          57.1697   92.7019   -0.8771 C.3     1  UNL1        0.0001
     21 C          57.7371   94.0898   -0.9188 C.3     1  UNL1        0.0017
     22 C          56.8388   95.2594   -1.1929 C.3     1  UNL1        0.0001
     23 C          59.6575   91.5442    4.7825 C.3     1  UNL1        0.4186
     24 F          58.9415   90.9519    5.9599 F       1  UNL1       -0.1659
     25 F          58.3834   92.1983    4.3368 F       1  UNL1       -0.1659
     26 F          60.9317   90.8902    5.2283 F       1  UNL1       -0.1659
     27 C          64.2105   95.3758   -4.8528 C.3     1  UNL1        0.1564
     28 N          64.7860   94.1993   -5.5838 N.am    1  UNL1       -0.2727
     29 C          64.5461   92.7550   -5.2574 C.3     1  UNL1        0.0943
     30 C          65.3143   91.9234   -6.2414 C.3     1  UNL1        0.0311
     31 C          66.0291   92.8538   -7.1761 C.3     1  UNL1        0.0870
     32 C          65.7026   94.2604   -6.7697 C.2     1  UNL1        0.2260
     33 O          66.2045   95.5087   -7.4327 O.2     1  UNL1       -0.2749
     34 C          63.1762   96.2372   -5.5147 C.3     1  UNL1        0.0564
     35 C          61.7186   95.9342   -5.3311 C.ar    1  UNL1       -0.0094
     36 C          60.9326   96.6453   -4.2697 C.ar    1  UNL1       -0.0025
     37 C          59.4751   96.3423   -4.0860 C.ar    1  UNL1        0.0111
     38 C          58.8035   95.3282   -4.9638 C.ar    1  UNL1        0.0585
     39 CL         57.3459   95.0252   -4.7802 Cl      1  UNL1       -0.0822
     40 C          59.5895   94.6171   -6.0253 C.ar    1  UNL1        0.0225
     41 C          61.0470   94.9201   -6.2089 C.ar    1  UNL1        0.0546
     42 CL         61.8329   94.2091   -7.2704 Cl      1  UNL1       -0.0825
@<TRIPOS>BOND
     1    20    21    1
     2    21    22    1
     3    21    19    1
     4    19    15    1
     5    15    16    1
     6    15     9    1
     7     9    10   ar
     8    10    11   ar
     9    11    23    1
    10    23    24    1
    11    23    25    1
    12    23    26    1
    13    11    12   ar
    14    12    13   ar
    15    13    14   ar
    16    14     1    1
    17     1     2    1
    18     2     3    1
    19     3     4    1
    20     4     5   am
    21     5     6    2
    22     5    27    1
    23    27    34    1
    24    34    35    1
    25    35    36   ar
    26    36    37   ar
    27    37    38   ar
    28    38    39    1
    29    38    40   ar
    30    40    41   ar
    31    41    42    1
    32    27    28    1
    33    28    29    1
    34    29    30    1
    35    30    31    1
    36    31    32    1
    37    32    33    2
    38     4     7    1
    39     7     8    1
    40    14     9   ar
    41     8     1    1
    42    41    35   ar
    43    32    28   am
    44    16    17    1
    45    16    18    1
@<TRIPOS>MOLECULE
*****
 42 45 0 0 0
SMALL
GASTEIGER

@<TRIPOS>ATOM
      1 N          62.6010   89.8627   11.7786 N.pl3   1  UNL1       -0.3043
      2 C          63.7307   90.7215   11.2926 C.3     1  UNL1        0.1123
      3 C          64.5463   91.5128   12.2717 C.3     1  UNL1        0.1149
      4 N          64.2321   91.4452   13.7370 N.am    1  UNL1       -0.2747
      5 C          65.0477   92.2364   14.7161 C.2     1  UNL1        0.2442
      6 O          64.7336   92.1689   16.1813 O.2     1  UNL1       -0.2731
      7 C          63.1024   90.5864   14.2230 C.3     1  UNL1        0.1149
      8 C          62.2868   89.7952   13.2437 C.3     1  UNL1        0.1123
      9 C          61.7765   87.5731   10.8686 C.ar    1  UNL1        0.0050
     10 C          60.9609   86.7820    9.8894 C.ar    1  UNL1        0.0021
     11 C          60.1543   87.4892    8.8410 C.ar    1  UNL1        0.0712
     12 C          60.1632   88.9875    8.7717 C.ar    1  UNL1        0.0051
     13 C          60.9788   89.7787    9.7509 C.ar    1  UNL1        0.0142
     14 C          61.7854   89.0715   10.7994 C.ar    1  UNL1        0.0451
     15 C          62.5831   86.8660   11.9171 C.3     1  UNL1        0.0748
     16 N          63.6266   87.6145   12.6921 N.3     1  UNL1       -0.3188
     17 H          64.0740   86.9836   13.3571 H       1  UNL1        0.1191
     18 H          63.1880   88.3849   13.1967 H       1  UNL1        0.1191
     19 C          62.3463   85.4103   12.1905 C.3     1  UNL1        0.0201
     20 C          63.4352   84.0361   10.2732 C.3     1  UNL1        0.0001
     21 C          63.3425   84.3885   11.7283 C.3     1  UNL1        0.0017
     22 C          64.2459   83.7193   12.7211 C.3     1  UNL1        0.0001
     23 C          59.3387   86.6979    7.8617 C.3     1  UNL1        0.4186
     24 F          58.5231   85.9067    6.8826 F       1  UNL1       -0.1659
     25 F          58.4629   87.8926    7.6259 F       1  UNL1       -0.1659
     26 F          60.2145   85.5032    8.0976 F       1  UNL1       -0.1659
     27 C          66.1774   93.0952   14.2301 C.3     1  UNL1        0.1564
     28 N          67.4576   93.1620   15.0090 N.am    1  UNL1       -0.2727
     29 C          68.1894   94.4126   15.3970 C.3     1  UNL1        0.0943
     30 C          69.4149   94.0134   16.1645 C.3     1  UNL1        0.0311
     31 C          69.4405   92.5161   16.2508 C.3     1  UNL1        0.0870
     32 C          68.2308   91.9899   15.5366 C.2     1  UNL1        0.2260
     33 O          67.8595   90.5452   15.3780 O.2     1  UNL1       -0.2749
     34 C          66.0270   93.8873   12.9652 C.3     1  UNL1        0.0564
     35 C          66.7814   93.4835   11.7332 C.ar    1  UNL1       -0.0094
     36 C          67.6038   92.2290   11.7348 C.ar    1  UNL1       -0.0025
     37 C          68.3582   91.8251   10.5029 C.ar    1  UNL1        0.0111
     38 C          68.2902   92.6757    9.2693 C.ar    1  UNL1        0.0585
     39 CL         69.0446   92.2719    8.0372 Cl      1  UNL1       -0.0822
     40 C          67.4678   93.9302    9.2677 C.ar    1  UNL1        0.0225
     41 C          66.7134   94.3341   10.4996 C.ar    1  UNL1        0.0546
     42 CL         65.8911   95.5886   10.4980 Cl      1  UNL1       -0.0825
@<TRIPOS>BOND
     1    20    21    1
     2    21    22    1
     3    21    19    1
     4    19    15    1
     5    15    16    1
     6    15     9    1
     7     9    10   ar
     8    10    11   ar
     9    11    23    1
    10    23    24    1
    11    23    25    1
    12    23    26    1
    13    11    12   ar
    14    12    13   ar
    15    13    14   ar
    16    14     1    1
    17     1     2    1
    18     2     3    1
    19     3     4    1
    20     4     5   am
    21     5     6    2
    22     5    27    1
    23    27    34    1
    24    34    35    1
    25    35    36   ar
    26    36    37   ar
    27    37    38   ar
    28    38    39    1
    29    38    40   ar
    30    40    41   ar
    31    41    42    1
    32    27    28    1
    33    28    29    1
    34    29    30    1
    35    30    31    1
    36    31    32    1
    37    32    33    2
    38     4     7    1
    39     7     8    1
    40    14     9   ar
    41     8     1    1
    42    41    35   ar
    43    32    28   am
    44    16    17    1
    45    16    18    1
@<TRIPOS>MOLECULE
*****
 42 45 0 0 0
SMALL
GASTEIGER

@<TRIPOS>ATOM
      1 N          64.0706   90.8319   12.8922 N.pl3   1  UNL1       -0.3043
      2 C          64.2737   90.3823   11.4756 C.3     1  UNL1        0.1123
      3 C          63.1780   89.6537   10.7556 C.3     1  UNL1        0.1149
      4 N          61.8791   89.3746   11.4521 N.am    1  UNL1       -0.2747
      5 C          60.7834   88.6459   10.7321 C.2     1  UNL1        0.2442
      6 O          59.4846   88.3669   11.4286 O.2     1  UNL1       -0.2731
      7 C          61.6760   89.8242   12.8687 C.3     1  UNL1        0.1149
      8 C          62.7718   90.5528   13.5887 C.3     1  UNL1        0.1123
      9 C          66.0634   92.4986   12.8602 C.ar    1  UNL1        0.0050
     10 C          67.1591   93.2272   13.5803 C.ar    1  UNL1        0.0021
     11 C          67.3578   93.0178   15.0522 C.ar    1  UNL1        0.0712
     12 C          66.4608   92.0798   15.8042 C.ar    1  UNL1        0.0051
     13 C          65.3651   91.3511   15.0841 C.ar    1  UNL1        0.0142
     14 C          65.1664   91.5606   13.6122 C.ar    1  UNL1        0.0451
     15 C          65.8646   92.7080   11.3883 C.3     1  UNL1        0.0748
     16 N          64.6904   93.5004   10.8953 N.3     1  UNL1       -0.3188
     17 H          64.7117   93.5418    9.8763 H       1  UNL1        0.1191
     18 H          64.7348   94.4461   11.2749 H       1  UNL1        0.1191
     19 C          66.8402   92.1251   10.4093 C.3     1  UNL1        0.0201
     20 C          67.5425   94.5034    9.6346 C.3     1  UNL1        0.0001
     21 C          67.7836   93.0232    9.6654 C.3     1  UNL1        0.0017
     22 C          68.9679   92.4411    8.9524 C.3     1  UNL1        0.0001
     23 C          68.4536   93.7465   15.7722 C.3     1  UNL1        0.4186
     24 F          69.5493   94.4751   16.4922 F       1  UNL1       -0.1659
     25 F          68.8820   92.4628   16.4193 F       1  UNL1       -0.1659
     26 F          68.0252   95.0301   15.1252 F       1  UNL1       -0.1659
     27 C          60.9865   88.1963    9.3155 C.3     1  UNL1        0.1564
     28 N          60.0819   88.7020    8.2312 N.am    1  UNL1       -0.2727
     29 C          60.1599   90.0484    7.5743 C.3     1  UNL1        0.0943
     30 C          59.0667   90.1287    6.5504 C.3     1  UNL1        0.0311
     31 C          58.3130   88.8320    6.5744 C.3     1  UNL1        0.0870
     32 C          58.9404   87.9503    7.6132 C.2     1  UNL1        0.2260
     33 O          58.5032   86.5608    7.9711 O.2     1  UNL1       -0.2749
     34 C          62.0942   87.2410    8.9834 C.3     1  UNL1        0.0564
     35 C          62.3737   86.0744    9.8839 C.ar    1  UNL1       -0.0094
     36 C          62.0814   86.1730   11.3518 C.ar    1  UNL1       -0.0025
     37 C          62.3609   85.0065   12.2523 C.ar    1  UNL1        0.0111
     38 C          62.9327   83.7412   11.6848 C.ar    1  UNL1        0.0585
     39 CL         63.2122   82.5745   12.5853 Cl      1  UNL1       -0.0822
     40 C          63.2250   83.6425   10.2169 C.ar    1  UNL1        0.0225
     41 C          62.9455   84.8091    9.3164 C.ar    1  UNL1        0.0546
     42 CL         63.2379   84.7104    7.8485 Cl      1  UNL1       -0.0825
@<TRIPOS>BOND
     1    20    21    1
     2    21    22    1
     3    21    19    1
     4    19    15    1
     5    15    16    1
     6    15     9    1
     7     9    10   ar
     8    10    11   ar
     9    11    23    1
    10    23    24    1
    11    23    25    1
    12    23    26    1
    13    11    12   ar
    14    12    13   ar
    15    13    14   ar
    16    14     1    1
    17     1     2    1
    18     2     3    1
    19     3     4    1
    20     4     5   am
    21     5     6    2
    22     5    27    1
    23    27    34    1
    24    34    35    1
    25    35    36   ar
    26    36    37   ar
    27    37    38   ar
    28    38    39    1
    29    38    40   ar
    30    40    41   ar
    31    41    42    1
    32    27    28    1
    33    28    29    1
    34    29    30    1
    35    30    31    1
    36    31    32    1
    37    32    33    2
    38     4     7    1
    39     7     8    1
    40    14     9   ar
    41     8     1    1
    42    41    35   ar
    43    32    28   am
    44    16    17    1
    45    16    18    1
@<TRIPOS>MOLECULE
*****
 42 45 0 0 0
SMALL
GASTEIGER

@<TRIPOS>ATOM
      1 N          57.6693   95.3481   -1.7736 N.pl3   1  UNL1       -0.3043
      2 C          58.2774   94.0051   -1.4971 C.3     1  UNL1        0.1123
      3 C          59.3105   93.8570   -0.4197 C.3     1  UNL1        0.1149
      4 N          59.7355   95.0520    0.3813 N.am    1  UNL1       -0.2747
      5 C          60.7686   94.9040    1.4586 C.2     1  UNL1        0.2442
      6 O          61.1935   96.0989    2.2595 O.2     1  UNL1       -0.2731
      7 C          59.1273   96.3951    0.1048 C.3     1  UNL1        0.1149
      8 C          58.0942   96.5431   -0.9727 C.3     1  UNL1        0.1123
      9 C          57.0614   95.6898   -4.2763 C.ar    1  UNL1        0.0050
     10 C          56.0283   95.8378   -5.3537 C.ar    1  UNL1        0.0021
     11 C          54.5700   95.7922   -5.0057 C.ar    1  UNL1        0.0712
     12 C          54.1447   95.5986   -3.5804 C.ar    1  UNL1        0.0051
     13 C          55.1778   95.4505   -2.5030 C.ar    1  UNL1        0.0142
     14 C          56.6362   95.4962   -2.8510 C.ar    1  UNL1        0.0451
     15 C          58.5198   95.7354   -4.6243 C.3     1  UNL1        0.0748
     16 N          59.3793   96.8513   -4.1087 N.3     1  UNL1       -0.3188
     17 H          60.3356   96.7250   -4.4403 H       1  UNL1        0.1191
     18 H          59.3695   96.8446   -3.0887 H       1  UNL1        0.1191
     19 C          59.1186   94.6652   -5.4879 C.3     1  UNL1        0.0201
     20 C          61.7105   94.4982   -5.4229 C.3     1  UNL1        0.0001
     21 C          60.4513   94.8859   -6.1400 C.3     1  UNL1        0.0017
     22 C          60.5248   95.4942   -7.5091 C.3     1  UNL1        0.0001
     23 C          53.5368   95.9402   -6.0832 C.3     1  UNL1        0.4186
     24 F          52.5037   96.0883   -7.1605 F       1  UNL1       -0.1659
     25 F          52.5028   96.2668   -5.0468 F       1  UNL1       -0.1659
     26 F          54.5708   95.6137   -7.1196 F       1  UNL1       -0.1659
     27 C          61.3767   93.5609    1.7351 C.3     1  UNL1        0.1564
     28 N          60.8921   92.7426    2.8950 N.am    1  UNL1       -0.2727
     29 C          59.4871   92.7009    3.4188 C.3     1  UNL1        0.0943
     30 C          59.4540   91.7549    4.5823 C.3     1  UNL1        0.0311
     31 C          60.8385   91.2117    4.7777 C.3     1  UNL1        0.0870
     32 C          61.7273   91.8222    3.7349 C.2     1  UNL1        0.2260
     33 O          63.1938   91.5586    3.5622 O.2     1  UNL1       -0.2749
     34 C          62.4695   93.0362    0.8517 C.3     1  UNL1        0.0564
     35 C          63.3673   93.9909    0.1218 C.ar    1  UNL1       -0.0094
     36 C          64.3792   94.7976    0.8803 C.ar    1  UNL1       -0.0025
     37 C          65.2770   95.7521    0.1505 C.ar    1  UNL1        0.0111
     38 C          65.1629   95.9001   -1.3378 C.ar    1  UNL1        0.0585
     39 CL         66.0607   96.8547   -2.0677 Cl      1  UNL1       -0.0822
     40 C          64.1510   95.0934   -2.0963 C.ar    1  UNL1        0.0225
     41 C          63.2532   94.1388   -1.3665 C.ar    1  UNL1        0.0546
     42 CL         62.2413   93.3321   -2.1250 Cl      1  UNL1       -0.0825
@<TRIPOS>BOND
     1    20    21    1
     2    21    22    1
     3    21    19    1
     4    19    15    1
     5    15    16    1
     6    15     9    1
     7     9    10   ar
     8    10    11   ar
     9    11    23    1
    10    23    24    1
    11    23    25    1
    12    23    26    1
    13    11    12   ar
    14    12    13   ar
    15    13    14   ar
    16    14     1    1
    17     1     2    1
    18     2     3    1
    19     3     4    1
    20     4     5   am
    21     5     6    2
    22     5    27    1
    23    27    34    1
    24    34    35    1
    25    35    36   ar
    26    36    37   ar
    27    37    38   ar
    28    38    39    1
    29    38    40   ar
    30    40    41   ar
    31    41    42    1
    32    27    28    1
    33    28    29    1
    34    29    30    1
    35    30    31    1
    36    31    32    1
    37    32    33    2
    38     4     7    1
    39     7     8    1
    40    14     9   ar
    41     8     1    1
    42    41    35   ar
    43    32    28   am
    44    16    17    1
    45    16    18    1
