@<TRIPOS>MOLECULE
*****
 33 36 0 0 0
SMALL
GASTEIGER

@<TRIPOS>ATOM
      1 C          62.0257   87.0056   11.6724 C.ar    1  UNL1        0.1739
      2 C          62.9787   87.6203   12.6542 C.ar    1  UNL1        0.0594
      3 C          63.5267   88.9947   12.4077 C.ar    1  UNL1        0.0919
      4 N          64.4798   89.6093   13.3895 N.ar    1  UNL1       -0.2147
      5 C          65.0277   90.9837   13.1430 C.ar    1  UNL1        0.2037
      6 N          64.6225   91.7435   11.9147 N.ar    1  UNL1       -0.2644
      7 C          63.6694   91.1289   10.9330 C.ar    1  UNL1        0.2646
      8 O          63.2643   91.8887    9.7048 O.2     1  UNL1       -0.2668
      9 C          63.1215   89.7545   11.1795 C.ar    1  UNL1        0.0772
     10 C          62.1684   89.1398   10.1978 C.ar    1  UNL1        0.0463
     11 C          61.6205   87.7654   10.4442 C.ar    1  UNL1        0.1726
     12 N          65.9808   91.5984   14.1247 N.pl3   1  UNL1       -0.2781
     13 C          65.4791   92.0891   15.4505 C.3     1  UNL1        0.0937
     14 C          66.4323   92.7037   16.4322 C.3     1  UNL1        0.0229
     15 C          67.8870   92.8277   16.0882 C.3     1  UNL1        0.0190
     16 C          68.3887   92.3370   14.7625 C.3     1  UNL1        0.0710
     17 N          69.8434   92.4609   14.4185 N.3     1  UNL1       -0.3208
     18 C          67.4356   91.7223   13.7808 C.3     1  UNL1        0.1089
     19 H          70.0060   92.0798   13.4864 H       1  UNL1        0.1189
     20 H          70.3991   91.9430   15.0992 H       1  UNL1        0.1189
     21 C          62.4127   84.4823   12.1550 C.3     1  UNL1        0.2526
     22 O          61.4777   85.6312   11.9189 O.3     1  UNL1       -0.4683
     23 O          60.6674   87.1508    9.4624 O.3     1  UNL1       -0.4684
     24 C          61.1771   86.2118    8.4096 C.3     1  UNL1        0.2526
     25 C          65.1704   93.1179   11.6683 C.3     1  UNL1        0.1391
     26 C          66.2884   93.3150   10.6878 C.ar    1  UNL1        0.0102
     27 C          67.2561   92.2007   10.4199 C.ar    1  UNL1       -0.0017
     28 C          68.3741   92.3977    9.4394 C.ar    1  UNL1       -0.0002
     29 C          68.5243   93.7090    8.7268 C.ar    1  UNL1        0.0007
     30 C          67.5565   94.8233    8.9947 C.ar    1  UNL1        0.0100
     31 C          66.4386   94.6263    9.9751 C.ar    1  UNL1        0.0663
     32 C          65.4708   95.7406   10.2430 C.1     1  UNL1        0.1002
     33 N          64.5031   96.8550   10.5109 N.1     1  UNL1       -0.1908
@<TRIPOS>BOND
     1    21    22    1
     2    22     1    1
     3     1     2   ar
     4     2     3   ar
     5     3     4   ar
     6     4     5   ar
     7     5    12    1
     8    12    13    1
     9    13    14    1
    10    14    15    1
    11    15    16    1
    12    16    17    1
    13    16    18    1
    14     5     6   ar
    15     6    25    1
    16    25    26    1
    17    26    27   ar
    18    27    28   ar
    19    28    29   ar
    20    29    30   ar
    21    30    31   ar
    22    31    32    1
    23    32    33    3
    24     6     7   ar
    25     7     8    2
    26     7     9   ar
    27     9    10   ar
    28    10    11   ar
    29    11    23    1
    30    23    24    1
    31    11     1   ar
    32     9     3   ar
    33    18    12    1
    34    31    26   ar
    35    17    19    1
    36    17    20    1
@<TRIPOS>MOLECULE
*****
 33 36 0 0 0
SMALL
GASTEIGER

@<TRIPOS>ATOM
      1 C          60.1665   89.1826    8.9773 C.ar    1  UNL1        0.1739
      2 C          61.0287   90.1118    9.7791 C.ar    1  UNL1        0.0594
      3 C          61.9076   89.5685   10.8665 C.ar    1  UNL1        0.0919
      4 N          62.7699   90.4978   11.6684 N.ar    1  UNL1       -0.2147
      5 C          63.6488   89.9546   12.7558 C.ar    1  UNL1        0.2037
      6 N          63.6653   88.4821   13.0414 N.ar    1  UNL1       -0.2644
      7 C          62.8031   87.5529   12.2395 C.ar    1  UNL1        0.2646
      8 O          62.8197   86.0804   12.5251 O.2     1  UNL1       -0.2668
      9 C          61.9242   88.0961   11.1521 C.ar    1  UNL1        0.0772
     10 C          61.0619   87.1669   10.3503 C.ar    1  UNL1        0.0463
     11 C          60.1831   87.7101    9.2628 C.ar    1  UNL1        0.1726
     12 N          64.5111   90.8838   13.5577 N.pl3   1  UNL1       -0.2781
     13 C          65.7847   91.4178   12.9723 C.3     1  UNL1        0.0937
     14 C          66.6470   92.3470   13.7742 C.3     1  UNL1        0.0229
     15 C          66.2356   92.7423   15.1615 C.3     1  UNL1        0.0190
     16 C          64.9619   92.2083   15.7468 C.3     1  UNL1        0.0710
     17 N          64.5505   92.6036   17.1341 N.3     1  UNL1       -0.3208
     18 C          64.0997   91.2791   14.9450 C.3     1  UNL1        0.1089
     19 H          63.6667   92.1516   17.3684 H       1  UNL1        0.1189
     20 H          64.4371   93.6163   17.1795 H       1  UNL1        0.1189
     21 C          59.6638   89.5263    6.4516 C.3     1  UNL1        0.2526
     22 O          59.2876   89.7258    7.8898 O.3     1  UNL1       -0.4683
     23 O          59.3208   86.7808    8.4610 O.3     1  UNL1       -0.4684
     24 C          59.9386   85.8954    7.4197 C.3     1  UNL1        0.2526
     25 C          64.5442   87.9389   14.1288 C.3     1  UNL1        0.1391
     26 C          63.9372   87.4550   15.4123 C.ar    1  UNL1        0.0102
     27 C          63.3378   88.4365   16.3753 C.ar    1  UNL1       -0.0017
     28 C          62.7308   87.9527   17.6588 C.ar    1  UNL1       -0.0002
     29 C          62.7230   86.4874   17.9793 C.ar    1  UNL1        0.0007
     30 C          63.3224   85.5059   17.0162 C.ar    1  UNL1        0.0100
     31 C          63.9295   85.9897   15.7328 C.ar    1  UNL1        0.0663
     32 C          64.5288   85.0082   14.7698 C.1     1  UNL1        0.1002
     33 N          65.1282   84.0266   13.8067 N.1     1  UNL1       -0.1908
@<TRIPOS>BOND
     1    21    22    1
     2    22     1    1
     3     1     2   ar
     4     2     3   ar
     5     3     4   ar
     6     4     5   ar
     7     5    12    1
     8    12    13    1
     9    13    14    1
    10    14    15    1
    11    15    16    1
    12    16    17    1
    13    16    18    1
    14     5     6   ar
    15     6    25    1
    16    25    26    1
    17    26    27   ar
    18    27    28   ar
    19    28    29   ar
    20    29    30   ar
    21    30    31   ar
    22    31    32    1
    23    32    33    3
    24     6     7   ar
    25     7     8    2
    26     7     9   ar
    27     9    10   ar
    28    10    11   ar
    29    11    23    1
    30    23    24    1
    31    11     1   ar
    32     9     3   ar
    33    18    12    1
    34    31    26   ar
    35    17    19    1
    36    17    20    1
@<TRIPOS>MOLECULE
*****
 33 36 0 0 0
SMALL
GASTEIGER

@<TRIPOS>ATOM
      1 C          60.1812   89.1830    8.7991 C.ar    1  UNL1        0.1739
      2 C          61.0914   90.2242    9.3799 C.ar    1  UNL1        0.0594
      3 C          61.9819   89.8807   10.5371 C.ar    1  UNL1        0.0919
      4 N          62.8921   90.9220   11.1179 N.ar    1  UNL1       -0.2147
      5 C          63.7826   90.5786   12.2751 C.ar    1  UNL1        0.2037
      6 N          63.7627   89.1938   12.8516 N.ar    1  UNL1       -0.2644
      7 C          62.8525   88.1527   12.2708 C.ar    1  UNL1        0.2646
      8 O          62.8327   86.7680   12.8473 O.2     1  UNL1       -0.2668
      9 C          61.9621   88.4961   11.1136 C.ar    1  UNL1        0.0772
     10 C          61.0518   87.4549   10.5328 C.ar    1  UNL1        0.0463
     11 C          60.1614   87.7984    9.3756 C.ar    1  UNL1        0.1726
     12 N          64.6928   91.6198   12.8559 N.pl3   1  UNL1       -0.2781
     13 C          65.3301   92.6418   11.9619 C.3     1  UNL1        0.0937
     14 C          66.2404   93.6830   12.5427 C.3     1  UNL1        0.0229
     15 C          66.5133   93.7022   14.0175 C.3     1  UNL1        0.0190
     16 C          65.8760   92.6802   14.9116 C.3     1  UNL1        0.0710
     17 N          66.1489   92.6993   16.3864 N.3     1  UNL1       -0.3208
     18 C          64.9657   91.6390   14.3308 C.3     1  UNL1        0.1089
     19 H          65.6379   91.9400   16.8366 H       1  UNL1        0.1189
     20 H          65.8456   93.5915   16.7767 H       1  UNL1        0.1189
     21 C          59.8839   89.7724    6.2863 C.3     1  UNL1        0.2526
     22 O          59.2908   89.5264    7.6419 O.3     1  UNL1       -0.4683
     23 O          59.2511   86.7571    8.7948 O.3     1  UNL1       -0.4684
     24 C          59.6298   86.0538    7.5251 C.3     1  UNL1        0.2526
     25 C          64.6531   88.8504   14.0088 C.3     1  UNL1        0.1391
     26 C          64.1638   87.9246   15.0827 C.ar    1  UNL1        0.0102
     27 C          64.3433   86.4428   14.9345 C.ar    1  UNL1       -0.0017
     28 C          63.8540   85.5168   16.0085 C.ar    1  UNL1       -0.0002
     29 C          63.1851   86.0728   17.2306 C.ar    1  UNL1        0.0007
     30 C          63.0056   87.5547   17.3787 C.ar    1  UNL1        0.0100
     31 C          63.4949   88.4805   16.3048 C.ar    1  UNL1        0.0663
     32 C          63.3154   89.9623   16.4530 C.1     1  UNL1        0.1002
     33 N          63.1359   91.4442   16.6012 N.1     1  UNL1       -0.1908
@<TRIPOS>BOND
     1    21    22    1
     2    22     1    1
     3     1     2   ar
     4     2     3   ar
     5     3     4   ar
     6     4     5   ar
     7     5    12    1
     8    12    13    1
     9    13    14    1
    10    14    15    1
    11    15    16    1
    12    16    17    1
    13    16    18    1
    14     5     6   ar
    15     6    25    1
    16    25    26    1
    17    26    27   ar
    18    27    28   ar
    19    28    29   ar
    20    29    30   ar
    21    30    31   ar
    22    31    32    1
    23    32    33    3
    24     6     7   ar
    25     7     8    2
    26     7     9   ar
    27     9    10   ar
    28    10    11   ar
    29    11    23    1
    30    23    24    1
    31    11     1   ar
    32     9     3   ar
    33    18    12    1
    34    31    26   ar
    35    17    19    1
    36    17    20    1
@<TRIPOS>MOLECULE
*****
 33 36 0 0 0
SMALL
GASTEIGER

@<TRIPOS>ATOM
      1 C          61.6654   88.8333   11.3800 C.ar    1  UNL1        0.1739
      2 C          62.7335   89.1201   12.3932 C.ar    1  UNL1        0.0594
      3 C          63.6326   90.3082   12.2195 C.ar    1  UNL1        0.0919
      4 N          64.7008   90.5949   13.2329 N.ar    1  UNL1       -0.2147
      5 C          65.5998   91.7830   13.0592 C.ar    1  UNL1        0.2037
      6 N          65.4306   92.6844   11.8722 N.ar    1  UNL1       -0.2644
      7 C          64.3624   92.3977   10.8589 C.ar    1  UNL1        0.2646
      8 O          64.1933   93.2990    9.6719 O.2     1  UNL1       -0.2668
      9 C          63.4634   91.2095   11.0326 C.ar    1  UNL1        0.0772
     10 C          62.3952   90.9228   10.0193 C.ar    1  UNL1        0.0463
     11 C          61.4962   89.7347   10.1930 C.ar    1  UNL1        0.1726
     12 N          66.6680   92.0698   14.0724 N.pl3   1  UNL1       -0.2781
     13 C          66.2913   92.4007   15.4862 C.3     1  UNL1        0.0937
     14 C          67.3595   92.6875   16.4994 C.3     1  UNL1        0.0229
     15 C          68.8044   92.6433   16.0990 C.3     1  UNL1        0.0190
     16 C          69.1811   92.3123   14.6853 C.3     1  UNL1        0.0710
     17 N          70.6259   92.2681   14.2848 N.3     1  UNL1       -0.3208
     18 C          68.1129   92.0256   13.6720 C.3     1  UNL1        0.1089
     19 H          70.6974   92.0294   13.2957 H       1  UNL1        0.1189
     20 H          71.1113   91.5638   14.8405 H       1  UNL1        0.1189
     21 C          61.2569   86.2744   11.1928 C.3     1  UNL1        0.2526
     22 O          60.7664   87.6452   11.5536 O.3     1  UNL1       -0.4683
     23 O          60.4280   89.4480    9.1797 O.3     1  UNL1       -0.4684
     24 C          60.4969   88.2003    8.3499 C.3     1  UNL1        0.2526
     25 C          66.3296   93.8725   11.6985 C.3     1  UNL1        0.1391
     26 C          66.1648   94.7701   10.5080 C.ar    1  UNL1        0.0102
     27 C          65.2053   95.9217   10.5642 C.ar    1  UNL1       -0.0017
     28 C          65.0405   96.8193    9.3737 C.ar    1  UNL1       -0.0002
     29 C          65.8352   96.5653    8.1271 C.ar    1  UNL1        0.0007
     30 C          66.7947   95.4136    8.0710 C.ar    1  UNL1        0.0100
     31 C          66.9595   94.5160    9.2615 C.ar    1  UNL1        0.0663
     32 C          67.9190   93.3645    9.2053 C.1     1  UNL1        0.1002
     33 N          68.8785   92.2128    9.1491 N.1     1  UNL1       -0.1908
@<TRIPOS>BOND
     1    21    22    1
     2    22     1    1
     3     1     2   ar
     4     2     3   ar
     5     3     4   ar
     6     4     5   ar
     7     5    12    1
     8    12    13    1
     9    13    14    1
    10    14    15    1
    11    15    16    1
    12    16    17    1
    13    16    18    1
    14     5     6   ar
    15     6    25    1
    16    25    26    1
    17    26    27   ar
    18    27    28   ar
    19    28    29   ar
    20    29    30   ar
    21    30    31   ar
    22    31    32    1
    23    32    33    3
    24     6     7   ar
    25     7     8    2
    26     7     9   ar
    27     9    10   ar
    28    10    11   ar
    29    11    23    1
    30    23    24    1
    31    11     1   ar
    32     9     3   ar
    33    18    12    1
    34    31    26   ar
    35    17    19    1
    36    17    20    1
@<TRIPOS>MOLECULE
*****
 33 36 0 0 0
SMALL
GASTEIGER

@<TRIPOS>ATOM
      1 C          63.0392   93.0088    1.9059 C.ar    1  UNL1        0.1739
      2 C          61.9175   92.3471    1.1617 C.ar    1  UNL1        0.0594
      3 C          61.1267   93.1239    0.1512 C.ar    1  UNL1        0.0919
      4 N          60.0050   92.4620   -0.5931 N.ar    1  UNL1       -0.2147
      5 C          59.2142   93.2388   -1.6036 C.ar    1  UNL1        0.2037
      6 N          59.5451   94.6775   -1.8699 N.ar    1  UNL1       -0.2644
      7 C          60.6668   95.3392   -1.1257 C.ar    1  UNL1        0.2646
      8 O          60.9977   96.7778   -1.3921 O.2     1  UNL1       -0.2668
      9 C          61.4576   94.5624   -0.1152 C.ar    1  UNL1        0.0772
     10 C          62.5793   95.2242    0.6290 C.ar    1  UNL1        0.0463
     11 C          63.3701   94.4474    1.6395 C.ar    1  UNL1        0.1726
     12 N          58.0925   92.5771   -2.3478 N.pl3   1  UNL1       -0.2781
     13 C          56.8171   92.2375   -1.6351 C.3     1  UNL1        0.0937
     14 C          55.6954   91.5757   -2.3794 C.3     1  UNL1        0.0229
     15 C          55.8492   91.2535   -3.8363 C.3     1  UNL1        0.0190
     16 C          57.1246   91.5931   -4.5489 C.3     1  UNL1        0.0710
     17 N          57.2784   91.2709   -6.0058 N.3     1  UNL1       -0.3208
     18 C          58.2463   92.2548   -3.8047 C.3     1  UNL1        0.1089
     19 H          58.2006   91.5685   -6.3243 H       1  UNL1        0.1189
     20 H          56.5600   91.7599   -6.5398 H       1  UNL1        0.1189
     21 C          63.4229   90.8331    3.2729 C.3     1  UNL1        0.2526
     22 O          63.8300   92.2320    2.9165 O.3     1  UNL1       -0.4683
     23 O          64.4918   95.1092    2.3838 O.3     1  UNL1       -0.4684
     24 C          64.8677   96.5267    2.0683 C.3     1  UNL1        0.2526
     25 C          58.7543   95.4543   -2.8805 C.3     1  UNL1        0.1391
     26 C          57.2837   95.6688   -2.6780 C.ar    1  UNL1        0.0102
     27 C          56.7635   96.0752   -1.3311 C.ar    1  UNL1       -0.0017
     28 C          55.2928   96.2898   -1.1285 C.ar    1  UNL1       -0.0002
     29 C          54.3422   96.0978   -2.2729 C.ar    1  UNL1        0.0007
     30 C          54.8625   95.6913   -3.6199 C.ar    1  UNL1        0.0100
     31 C          56.3331   95.4768   -3.8224 C.ar    1  UNL1        0.0663
     32 C          56.8533   95.0703   -5.1693 C.1     1  UNL1        0.1002
     33 N          57.3734   94.6639   -6.5163 N.1     1  UNL1       -0.1908
@<TRIPOS>BOND
     1    21    22    1
     2    22     1    1
     3     1     2   ar
     4     2     3   ar
     5     3     4   ar
     6     4     5   ar
     7     5    12    1
     8    12    13    1
     9    13    14    1
    10    14    15    1
    11    15    16    1
    12    16    17    1
    13    16    18    1
    14     5     6   ar
    15     6    25    1
    16    25    26    1
    17    26    27   ar
    18    27    28   ar
    19    28    29   ar
    20    29    30   ar
    21    30    31   ar
    22    31    32    1
    23    32    33    3
    24     6     7   ar
    25     7     8    2
    26     7     9   ar
    27     9    10   ar
    28    10    11   ar
    29    11    23    1
    30    23    24    1
    31    11     1   ar
    32     9     3   ar
    33    18    12    1
    34    31    26   ar
    35    17    19    1
    36    17    20    1
@<TRIPOS>MOLECULE
*****
 33 36 0 0 0
SMALL
GASTEIGER

@<TRIPOS>ATOM
      1 C          60.1171   89.0784    8.8349 C.ar    1  UNL1        0.1739
      2 C          60.8833   89.9652    9.7710 C.ar    1  UNL1        0.0594
      3 C          61.7593   89.3610   10.8282 C.ar    1  UNL1        0.0919
      4 N          62.5255   90.2479   11.7643 N.ar    1  UNL1       -0.2147
      5 C          63.4015   89.6437   12.8215 C.ar    1  UNL1        0.2037
      6 N          63.5112   88.1526   12.9425 N.ar    1  UNL1       -0.2644
      7 C          62.7450   87.2657   12.0064 C.ar    1  UNL1        0.2646
      8 O          62.8548   85.7747   12.1274 O.2     1  UNL1       -0.2668
      9 C          61.8691   87.8700   10.9492 C.ar    1  UNL1        0.0772
     10 C          61.1028   86.9831   10.0131 C.ar    1  UNL1        0.0463
     11 C          60.2269   87.5873    8.9559 C.ar    1  UNL1        0.1726
     12 N          64.1677   90.5305   13.7576 N.pl3   1  UNL1       -0.2781
     13 C          63.7630   90.6275   15.1988 C.3     1  UNL1        0.0937
     14 C          64.5293   91.5144   16.1349 C.3     1  UNL1        0.0229
     15 C          65.7002   92.3043   15.6299 C.3     1  UNL1        0.0190
     16 C          66.1049   92.2073   14.1888 C.3     1  UNL1        0.0710
     17 N          67.2757   92.9972   13.6838 N.3     1  UNL1       -0.3208
     18 C          65.3387   91.3205   13.2527 C.3     1  UNL1        0.1089
     19 H          67.4073   92.8121   12.6894 H       1  UNL1        0.1189
     20 H          68.1155   92.7245   14.1945 H       1  UNL1        0.1189
     21 C          59.6929   89.6969    6.3474 C.3     1  UNL1        0.2526
     22 O          59.2411   89.6826    7.7777 O.3     1  UNL1       -0.4683
     23 O          59.4606   86.7004    8.0197 O.3     1  UNL1       -0.4684
     24 C          60.1609   85.5851    7.3015 C.3     1  UNL1        0.2526
     25 C          64.3872   87.5484   13.9997 C.3     1  UNL1        0.1391
     26 C          64.1571   86.1352   14.4468 C.ar    1  UNL1        0.0102
     27 C          64.5142   84.9944   13.5407 C.ar    1  UNL1       -0.0017
     28 C          64.2841   83.5811   13.9878 C.ar    1  UNL1       -0.0002
     29 C          63.6970   83.3088   15.3410 C.ar    1  UNL1        0.0007
     30 C          63.3400   84.4497   16.2471 C.ar    1  UNL1        0.0100
     31 C          63.5700   85.8628   15.8000 C.ar    1  UNL1        0.0663
     32 C          63.2130   87.0037   16.7061 C.1     1  UNL1        0.1002
     33 N          62.8560   88.1446   17.6122 N.1     1  UNL1       -0.1908
@<TRIPOS>BOND
     1    21    22    1
     2    22     1    1
     3     1     2   ar
     4     2     3   ar
     5     3     4   ar
     6     4     5   ar
     7     5    12    1
     8    12    13    1
     9    13    14    1
    10    14    15    1
    11    15    16    1
    12    16    17    1
    13    16    18    1
    14     5     6   ar
    15     6    25    1
    16    25    26    1
    17    26    27   ar
    18    27    28   ar
    19    28    29   ar
    20    29    30   ar
    21    30    31   ar
    22    31    32    1
    23    32    33    3
    24     6     7   ar
    25     7     8    2
    26     7     9   ar
    27     9    10   ar
    28    10    11   ar
    29    11    23    1
    30    23    24    1
    31    11     1   ar
    32     9     3   ar
    33    18    12    1
    34    31    26   ar
    35    17    19    1
    36    17    20    1
