@<TRIPOS>MOLECULE
*****
 25 28 0 0 0
SMALL
GASTEIGER

@<TRIPOS>ATOM
      1 C          63.9791   89.3571   13.5403 C.ar    1  UNL1        0.0481
      2 C          64.4668   88.4141   14.6000 C.ar    1  UNL1        0.0146
      3 C          64.2170   86.9412   14.4659 C.ar    1  UNL1        0.0033
      4 C          63.4794   86.4112   13.2721 C.ar    1  UNL1        0.0239
      5 C          62.9917   87.3542   12.2125 C.ar    1  UNL1        0.0033
      6 C          63.2415   88.8271   12.3466 C.ar    1  UNL1        0.0146
      7 C          63.2296   84.9382   13.1380 C.ar    1  UNL1        0.1107
      8 N          63.5042   84.1045   11.9217 N.ar    1  UNL1       -0.2383
      9 C          63.1056   82.6914   12.2286 C.ar    1  UNL1        0.0878
     10 C          63.1497   81.4356   11.4094 C.ar    1  UNL1        0.0196
     11 C          62.6729   80.1402   11.9963 C.ar    1  UNL1        0.0016
     12 C          62.1519   80.1006   13.4024 C.ar    1  UNL1        0.0006
     13 C          62.1078   81.3563   14.2216 C.ar    1  UNL1        0.0080
     14 C          62.5846   82.6517   13.6347 C.ar    1  UNL1        0.0485
     15 S          62.6613   84.0404   14.1967 S.2     1  UNL1       -0.0665
     16 N          64.2289   90.8301   13.6744 N.pl3   1  UNL1       -0.3024
     17 C          64.9784   91.9910   11.4743 C.3     1  UNL1        0.0232
     18 C          63.9358   91.7482   12.5251 C.3     1  UNL1        0.0912
     19 C          64.7719   91.3849   14.9579 C.3     1  UNL1        0.1366
     20 C          66.1238   92.0342   14.9818 C.ar    1  UNL1        0.0745
     21 C          67.2807   91.6952   14.0890 C.ar    1  UNL1        0.1148
     22 N          68.4282   92.5880   14.4582 N.ar    1  UNL1       -0.2228
     23 C          67.9806   93.4787   15.5790 C.ar    1  UNL1        0.1748
     24 N          66.5564   93.1364   15.9026 N.ar    1  UNL1       -0.3369
     25 H          66.0028   93.5608   16.5974 H       1  UNL1        0.1672
@<TRIPOS>BOND
     1    17    18    1
     2    18    16    1
     3    16    19    1
     4    19    20    1
     5    20    21   ar
     6    21    22   ar
     7    22    23   ar
     8    23    24   ar
     9    16     1    1
    10     1     2   ar
    11     2     3   ar
    12     3     4   ar
    13     4     7    1
    14     7     8   ar
    15     8     9   ar
    16     9    10   ar
    17    10    11   ar
    18    11    12   ar
    19    12    13   ar
    20    13    14   ar
    21    14    15   ar
    22     4     5   ar
    23     5     6   ar
    24    24    20   ar
    25     6     1   ar
    26    15     7   ar
    27    14     9   ar
    28    24    25    1
@<TRIPOS>MOLECULE
*****
 25 28 0 0 0
SMALL
GASTEIGER

@<TRIPOS>ATOM
      1 C          64.0263   89.2629   13.5739 C.ar    1  UNL1        0.0481
      2 C          64.5280   88.3125   14.6204 C.ar    1  UNL1        0.0146
      3 C          64.2620   86.8423   14.4877 C.ar    1  UNL1        0.0033
      4 C          63.4943   86.3224   13.3085 C.ar    1  UNL1        0.0239
      5 C          62.9927   87.2728   12.2621 C.ar    1  UNL1        0.0033
      6 C          63.2587   88.7431   12.3948 C.ar    1  UNL1        0.0146
      7 C          63.2283   84.8522   13.1758 C.ar    1  UNL1        0.1107
      8 N          63.5027   84.0124   11.9636 N.ar    1  UNL1       -0.2383
      9 C          63.0852   82.6048   12.2706 C.ar    1  UNL1        0.0878
     10 C          63.1210   81.3467   11.4547 C.ar    1  UNL1        0.0196
     11 C          62.6244   80.0583   12.0408 C.ar    1  UNL1        0.0016
     12 C          62.0920   80.0281   13.4428 C.ar    1  UNL1        0.0006
     13 C          62.0562   81.2862   14.2587 C.ar    1  UNL1        0.0080
     14 C          62.5528   82.5746   13.6726 C.ar    1  UNL1        0.0485
     15 S          62.6413   83.9635   14.2320 S.2     1  UNL1       -0.0665
     16 N          64.2924   90.7332   13.7066 N.pl3   1  UNL1       -0.3024
     17 C          63.9623   91.2714   16.2268 C.3     1  UNL1        0.0232
     18 C          64.8208   91.2863   14.9969 C.3     1  UNL1        0.0912
     19 C          64.0299   91.6503   12.5491 C.3     1  UNL1        0.1366
     20 C          65.1757   92.3066   11.8374 C.ar    1  UNL1        0.0745
     21 C          66.5837   92.4130   12.3439 C.ar    1  UNL1        0.1148
     22 N          67.3928   93.1439   11.3138 N.ar    1  UNL1       -0.2228
     23 C          66.4851   93.4891   10.1706 C.ar    1  UNL1        0.1748
     24 N          65.1148   92.9716   10.4942 N.ar    1  UNL1       -0.3369
     25 H          64.3158   93.0540    9.9250 H       1  UNL1        0.1672
@<TRIPOS>BOND
     1    17    18    1
     2    18    16    1
     3    16    19    1
     4    19    20    1
     5    20    21   ar
     6    21    22   ar
     7    22    23   ar
     8    23    24   ar
     9    16     1    1
    10     1     2   ar
    11     2     3   ar
    12     3     4   ar
    13     4     7    1
    14     7     8   ar
    15     8     9   ar
    16     9    10   ar
    17    10    11   ar
    18    11    12   ar
    19    12    13   ar
    20    13    14   ar
    21    14    15   ar
    22     4     5   ar
    23     5     6   ar
    24    24    20   ar
    25     6     1   ar
    26    15     7   ar
    27    14     9   ar
    28    24    25    1
@<TRIPOS>MOLECULE
*****
 25 28 0 0 0
SMALL
GASTEIGER

@<TRIPOS>ATOM
      1 C          64.9016   91.7704   13.0416 C.ar    1  UNL1        0.0481
      2 C          64.3572   90.4671   13.5465 C.ar    1  UNL1        0.0146
      3 C          63.4698   89.6347   12.6692 C.ar    1  UNL1        0.0033
      4 C          63.1269   90.1056   11.2869 C.ar    1  UNL1        0.0239
      5 C          63.6713   91.4089   10.7820 C.ar    1  UNL1        0.0033
      6 C          64.5586   92.2413   11.6593 C.ar    1  UNL1        0.0146
      7 C          62.2395   89.2732   10.4096 C.ar    1  UNL1        0.1107
      8 N          61.0920   89.7766    9.5851 N.ar    1  UNL1       -0.2383
      9 C          60.4872   88.6057    8.8686 C.ar    1  UNL1        0.0878
     10 C          59.3319   88.4984    7.9180 C.ar    1  UNL1        0.0196
     11 C          58.9503   87.1640    7.3491 C.ar    1  UNL1        0.0016
     12 C          59.7240   85.9369    7.7308 C.ar    1  UNL1        0.0006
     13 C          60.8793   86.0443    8.6815 C.ar    1  UNL1        0.0080
     14 C          61.2609   87.3787    9.2504 C.ar    1  UNL1        0.0485
     15 S          62.3439   87.7912   10.2027 S.2     1  UNL1       -0.0665
     16 N          65.7889   92.6028   13.9189 N.pl3   1  UNL1       -0.3024
     17 C          67.2329   92.6797   16.0773 C.3     1  UNL1        0.0232
     18 C          66.0061   92.2134   15.3511 C.3     1  UNL1        0.0912
     19 C          66.4591   93.8247   13.3641 C.3     1  UNL1        0.1366
     20 C          66.7965   93.8975   11.9043 C.ar    1  UNL1        0.0745
     21 C          66.3911   94.9895   10.9591 C.ar    1  UNL1        0.1148
     22 N          66.9426   94.6580    9.6041 N.ar    1  UNL1       -0.2228
     23 C          67.6887   93.3612    9.7118 C.ar    1  UNL1        0.1748
     24 N          67.5984   92.8912   11.1334 N.ar    1  UNL1       -0.3369
     25 H          67.9957   92.0670   11.4968 H       1  UNL1        0.1672
@<TRIPOS>BOND
     1    17    18    1
     2    18    16    1
     3    16    19    1
     4    19    20    1
     5    20    21   ar
     6    21    22   ar
     7    22    23   ar
     8    23    24   ar
     9    16     1    1
    10     1     2   ar
    11     2     3   ar
    12     3     4   ar
    13     4     7    1
    14     7     8   ar
    15     8     9   ar
    16     9    10   ar
    17    10    11   ar
    18    11    12   ar
    19    12    13   ar
    20    13    14   ar
    21    14    15   ar
    22     4     5   ar
    23     5     6   ar
    24    24    20   ar
    25     6     1   ar
    26    15     7   ar
    27    14     9   ar
    28    24    25    1
@<TRIPOS>MOLECULE
*****
 25 28 0 0 0
SMALL
GASTEIGER

@<TRIPOS>ATOM
      1 C          64.1447   89.0654   14.0570 C.ar    1  UNL1        0.0481
      2 C          64.6231   87.9932   14.9904 C.ar    1  UNL1        0.0146
      3 C          64.3869   86.5496   14.6585 C.ar    1  UNL1        0.0033
      4 C          63.6722   86.1782   13.3931 C.ar    1  UNL1        0.0239
      5 C          63.1938   87.2504   12.4596 C.ar    1  UNL1        0.0033
      6 C          63.4300   88.6940   12.7916 C.ar    1  UNL1        0.0146
      7 C          63.4360   84.7346   13.0612 C.ar    1  UNL1        0.1107
      8 N          63.6284   84.0958   11.7177 N.ar    1  UNL1       -0.2383
      9 C          63.2772   82.6427   11.8406 C.ar    1  UNL1        0.0878
     10 C          63.2773   81.5222   10.8434 C.ar    1  UNL1        0.0196
     11 C          62.8680   80.1424   11.2657 C.ar    1  UNL1        0.0016
     12 C          62.4585   79.8830   12.6853 C.ar    1  UNL1        0.0006
     13 C          62.4584   81.0035   13.6825 C.ar    1  UNL1        0.0080
     14 C          62.8677   82.3833   13.2602 C.ar    1  UNL1        0.0485
     15 S          62.9659   83.6762   14.0145 S.2     1  UNL1       -0.0665
     16 N          64.3809   90.5090   14.3889 N.pl3   1  UNL1       -0.3024
     17 C          63.2885   90.1988   16.7256 C.3     1  UNL1        0.0232
     18 C          63.7899   91.0985   15.6351 C.3     1  UNL1        0.0912
     19 C          65.2082   91.3632   13.4746 C.3     1  UNL1        0.1366
     20 C          66.4069   92.0902   14.0079 C.ar    1  UNL1        0.0745
     21 C          67.8410   91.7450   13.7352 C.ar    1  UNL1        0.1148
     22 N          68.7023   92.7317   14.4664 N.ar    1  UNL1       -0.2228
     23 C          67.8007   93.6866   15.1910 C.ar    1  UNL1        0.1748
     24 N          66.3820   93.2902   14.9076 N.ar    1  UNL1       -0.3369
     25 H          65.5761   93.7389   15.2517 H       1  UNL1        0.1672
@<TRIPOS>BOND
     1    17    18    1
     2    18    16    1
     3    16    19    1
     4    19    20    1
     5    20    21   ar
     6    21    22   ar
     7    22    23   ar
     8    23    24   ar
     9    16     1    1
    10     1     2   ar
    11     2     3   ar
    12     3     4   ar
    13     4     7    1
    14     7     8   ar
    15     8     9   ar
    16     9    10   ar
    17    10    11   ar
    18    11    12   ar
    19    12    13   ar
    20    13    14   ar
    21    14    15   ar
    22     4     5   ar
    23     5     6   ar
    24    24    20   ar
    25     6     1   ar
    26    15     7   ar
    27    14     9   ar
    28    24    25    1
@<TRIPOS>MOLECULE
*****
 25 28 0 0 0
SMALL
GASTEIGER

@<TRIPOS>ATOM
      1 C          61.5468   89.1305   10.1947 C.ar    1  UNL1        0.0481
      2 C          62.0660   88.3722   11.3801 C.ar    1  UNL1        0.0146
      3 C          63.0869   88.9990   12.2828 C.ar    1  UNL1        0.0033
      4 C          63.5885   90.3840   12.0001 C.ar    1  UNL1        0.0239
      5 C          63.0693   91.1423   10.8147 C.ar    1  UNL1        0.0033
      6 C          62.0484   90.5156    9.9120 C.ar    1  UNL1        0.0146
      7 C          64.6094   91.0108   12.9029 C.ar    1  UNL1        0.1107
      8 N          65.9618   91.5120   12.4906 N.ar    1  UNL1       -0.2383
      9 C          66.6454   92.0574   13.7093 C.ar    1  UNL1        0.0878
     10 C          67.9944   92.6822   13.9083 C.ar    1  UNL1        0.0196
     11 C          68.4136   93.1429   15.2729 C.ar    1  UNL1        0.0016
     12 C          67.4837   92.9788   16.4384 C.ar    1  UNL1        0.0006
     13 C          66.1347   92.3540   16.2394 C.ar    1  UNL1        0.0080
     14 C          65.7155   91.8932   14.8748 C.ar    1  UNL1        0.0485
     15 S          64.4573   91.2464   14.3764 S.2     1  UNL1       -0.0665
     16 N          60.5259   88.5037    9.2919 N.pl3   1  UNL1       -0.3024
     17 C          59.3237   88.8246    7.0112 C.3     1  UNL1        0.0232
     18 C          59.7290   89.3597    8.3526 C.3     1  UNL1        0.0912
     19 C          60.3019   87.0210    9.3285 C.3     1  UNL1        0.1366
     20 C          61.0689   86.1236    8.4032 C.ar    1  UNL1        0.0745
     21 C          62.5087   85.7291    8.5500 C.ar    1  UNL1        0.1148
     22 N          62.8605   84.8248    7.4061 N.ar    1  UNL1       -0.2228
     23 C          61.6382   84.6603    6.5524 C.ar    1  UNL1        0.1748
     24 N          60.5310   85.4630    7.1686 N.ar    1  UNL1       -0.3369
     25 H          59.6124   85.5424    6.8233 H       1  UNL1        0.1672
@<TRIPOS>BOND
     1    17    18    1
     2    18    16    1
     3    16    19    1
     4    19    20    1
     5    20    21   ar
     6    21    22   ar
     7    22    23   ar
     8    23    24   ar
     9    16     1    1
    10     1     2   ar
    11     2     3   ar
    12     3     4   ar
    13     4     7    1
    14     7     8   ar
    15     8     9   ar
    16     9    10   ar
    17    10    11   ar
    18    11    12   ar
    19    12    13   ar
    20    13    14   ar
    21    14    15   ar
    22     4     5   ar
    23     5     6   ar
    24    24    20   ar
    25     6     1   ar
    26    15     7   ar
    27    14     9   ar
    28    24    25    1
@<TRIPOS>MOLECULE
*****
 25 28 0 0 0
SMALL
GASTEIGER

@<TRIPOS>ATOM
      1 C          64.4033   89.3424   14.5645 C.ar    1  UNL1        0.0481
      2 C          65.5955   90.1688   14.9463 C.ar    1  UNL1        0.0146
      3 C          66.0502   91.2861   14.0547 C.ar    1  UNL1        0.0033
      4 C          65.3127   91.5770   12.7814 C.ar    1  UNL1        0.0239
      5 C          64.1205   90.7507   12.3996 C.ar    1  UNL1        0.0033
      6 C          63.6658   89.6334   13.2912 C.ar    1  UNL1        0.0146
      7 C          65.7674   92.6944   11.8899 C.ar    1  UNL1        0.1107
      8 N          65.7134   94.1581   12.2133 N.ar    1  UNL1       -0.2383
      9 C          66.2686   94.9125   11.0417 C.ar    1  UNL1        0.0878
     10 C          66.4638   96.3788   10.7934 C.ar    1  UNL1        0.0196
     11 C          67.0561   96.8477    9.4975 C.ar    1  UNL1        0.0016
     12 C          67.4532   95.8502    8.4499 C.ar    1  UNL1        0.0006
     13 C          67.2579   94.3839    8.6982 C.ar    1  UNL1        0.0080
     14 C          66.6656   93.9150    9.9941 C.ar    1  UNL1        0.0485
     15 S          66.3559   92.5442   10.5183 S.2     1  UNL1       -0.0665
     16 N          63.9486   88.2251   15.4561 N.pl3   1  UNL1       -0.3024
     17 C          62.8894   87.5962   17.7435 C.3     1  UNL1        0.0232
     18 C          62.9481   88.4914   16.5414 C.3     1  UNL1        0.0912
     19 C          64.4945   86.8415   15.2623 C.3     1  UNL1        0.1366
     20 C          63.6135   85.7574   14.7158 C.ar    1  UNL1        0.0745
     21 C          63.4702   85.3825   13.2704 C.ar    1  UNL1        0.1148
     22 N          62.4893   84.2512   13.1801 N.ar    1  UNL1       -0.2228
     23 C          62.0264   83.9270   14.5696 C.ar    1  UNL1        0.1748
     24 N          62.7212   84.8578   15.5187 N.ar    1  UNL1       -0.3369
     25 H          62.6109   84.8753   16.4968 H       1  UNL1        0.1672
@<TRIPOS>BOND
     1    17    18    1
     2    18    16    1
     3    16    19    1
     4    19    20    1
     5    20    21   ar
     6    21    22   ar
     7    22    23   ar
     8    23    24   ar
     9    16     1    1
    10     1     2   ar
    11     2     3   ar
    12     3     4   ar
    13     4     7    1
    14     7     8   ar
    15     8     9   ar
    16     9    10   ar
    17    10    11   ar
    18    11    12   ar
    19    12    13   ar
    20    13    14   ar
    21    14    15   ar
    22     4     5   ar
    23     5     6   ar
    24    24    20   ar
    25     6     1   ar
    26    15     7   ar
    27    14     9   ar
    28    24    25    1
@<TRIPOS>MOLECULE
*****
 25 28 0 0 0
SMALL
GASTEIGER

@<TRIPOS>ATOM
      1 C          63.5261   88.8954   12.5252 C.ar    1  UNL1        0.0481
      2 C          62.7285   88.1922   11.4673 C.ar    1  UNL1        0.0146
      3 C          62.5152   86.7097   11.5502 C.ar    1  UNL1        0.0033
      4 C          63.0994   85.9306   12.6910 C.ar    1  UNL1        0.0239
      5 C          63.8970   86.6338   13.7490 C.ar    1  UNL1        0.0033
      6 C          64.1104   88.1163   13.6661 C.ar    1  UNL1        0.0146
      7 C          62.8861   84.4481   12.7739 C.ar    1  UNL1        0.1107
      8 N          62.2524   83.7111   13.9164 N.ar    1  UNL1       -0.2383
      9 C          62.2436   82.2499   13.5775 C.ar    1  UNL1        0.0878
     10 C          61.7447   81.0491   14.3252 C.ar    1  UNL1        0.0196
     11 C          61.8741   79.6823   13.7210 C.ar    1  UNL1        0.0016
     12 C          62.5025   79.5163   12.3692 C.ar    1  UNL1        0.0006
     13 C          63.0014   80.7170   11.6214 C.ar    1  UNL1        0.0080
     14 C          62.8720   82.0838   12.2256 C.ar    1  UNL1        0.0485
     15 S          63.2690   83.4424   11.7290 S.2     1  UNL1       -0.0665
     16 N          63.7395   90.3779   12.4423 N.pl3   1  UNL1       -0.3024
     17 C          63.1132   91.4807   10.1749 C.3     1  UNL1        0.0232
     18 C          62.8121   91.2243   11.6218 C.3     1  UNL1        0.0912
     19 C          64.8802   91.0138   13.1800 C.3     1  UNL1        0.1366
     20 C          64.7073   91.4352   14.6092 C.ar    1  UNL1        0.0745
     21 C          63.5726   91.0492   15.5111 C.ar    1  UNL1        0.1148
     22 N          63.8028   91.6920   16.8467 N.ar    1  UNL1       -0.2228
     23 C          65.0797   92.4753   16.7702 C.ar    1  UNL1        0.1748
     24 N          65.6387   92.3166   15.3874 N.ar    1  UNL1       -0.3369
     25 H          66.4709   92.7201   15.0498 H       1  UNL1        0.1672
@<TRIPOS>BOND
     1    17    18    1
     2    18    16    1
     3    16    19    1
     4    19    20    1
     5    20    21   ar
     6    21    22   ar
     7    22    23   ar
     8    23    24   ar
     9    16     1    1
    10     1     2   ar
    11     2     3   ar
    12     3     4   ar
    13     4     7    1
    14     7     8   ar
    15     8     9   ar
    16     9    10   ar
    17    10    11   ar
    18    11    12   ar
    19    12    13   ar
    20    13    14   ar
    21    14    15   ar
    22     4     5   ar
    23     5     6   ar
    24    24    20   ar
    25     6     1   ar
    26    15     7   ar
    27    14     9   ar
    28    24    25    1
@<TRIPOS>MOLECULE
*****
 25 28 0 0 0
SMALL
GASTEIGER

@<TRIPOS>ATOM
      1 C          64.8488   92.1929   12.2670 C.ar    1  UNL1        0.0481
      2 C          64.2845   90.9939   12.9698 C.ar    1  UNL1        0.0146
      3 C          63.4016   90.0356   12.2267 C.ar    1  UNL1        0.0033
      4 C          63.0830   90.2762   10.7809 C.ar    1  UNL1        0.0239
      5 C          63.6472   91.4752   10.0781 C.ar    1  UNL1        0.0033
      6 C          64.5301   92.4336   10.8211 C.ar    1  UNL1        0.0146
      7 C          62.2001   89.3179   10.0379 C.ar    1  UNL1        0.1107
      8 N          62.5362   87.8981    9.6899 N.ar    1  UNL1       -0.2383
      9 C          61.3699   87.3138    8.9493 C.ar    1  UNL1        0.0878
     10 C          61.1338   85.9545    8.3607 C.ar    1  UNL1        0.0196
     11 C          59.8408   85.6539    7.6624 C.ar    1  UNL1        0.0016
     12 C          58.7839   86.7127    7.5527 C.ar    1  UNL1        0.0006
     13 C          59.0200   88.0719    8.1413 C.ar    1  UNL1        0.0080
     14 C          60.3130   88.3725    8.8396 C.ar    1  UNL1        0.0485
     15 S          60.8261   89.6111    9.5124 S.2     1  UNL1       -0.0665
     16 N          65.7316   93.1513   13.0100 N.pl3   1  UNL1       -0.3024
     17 C          66.8996   94.3277   11.0096 C.3     1  UNL1        0.0232
     18 C          66.2096   94.4049   12.3392 C.3     1  UNL1        0.0912
     19 C          66.1365   92.8560   14.4238 C.3     1  UNL1        0.1366
     20 C          67.5713   92.9970   14.8381 C.ar    1  UNL1        0.0745
     21 C          68.0868   93.8601   15.9514 C.ar    1  UNL1        0.1148
     22 N          69.5766   93.6961   16.0131 N.ar    1  UNL1       -0.2228
     23 C          69.9817   92.7316   14.9381 C.ar    1  UNL1        0.1748
     24 N          68.7424   92.2996   14.2119 N.ar    1  UNL1       -0.3369
     25 H          68.7043   91.6690   13.4568 H       1  UNL1        0.1672
@<TRIPOS>BOND
     1    17    18    1
     2    18    16    1
     3    16    19    1
     4    19    20    1
     5    20    21   ar
     6    21    22   ar
     7    22    23   ar
     8    23    24   ar
     9    16     1    1
    10     1     2   ar
    11     2     3   ar
    12     3     4   ar
    13     4     7    1
    14     7     8   ar
    15     8     9   ar
    16     9    10   ar
    17    10    11   ar
    18    11    12   ar
    19    12    13   ar
    20    13    14   ar
    21    14    15   ar
    22     4     5   ar
    23     5     6   ar
    24    24    20   ar
    25     6     1   ar
    26    15     7   ar
    27    14     9   ar
    28    24    25    1
@<TRIPOS>MOLECULE
*****
 25 28 0 0 0
SMALL
GASTEIGER

@<TRIPOS>ATOM
      1 C          63.9627   88.8945   13.5118 C.ar    1  UNL1        0.0481
      2 C          63.2495   88.3552   12.3075 C.ar    1  UNL1        0.0146
      3 C          62.9912   86.8827   12.1857 C.ar    1  UNL1        0.0033
      4 C          63.4462   85.9494   13.2683 C.ar    1  UNL1        0.0239
      5 C          64.1595   86.4886   14.4726 C.ar    1  UNL1        0.0033
      6 C          64.4177   87.9612   14.5944 C.ar    1  UNL1        0.0146
      7 C          63.1880   84.4768   13.1465 C.ar    1  UNL1        0.1107
      8 N          63.4663   83.6296   11.9403 N.ar    1  UNL1       -0.2383
      9 C          63.0564   82.2221   12.2578 C.ar    1  UNL1        0.0878
     10 C          63.0986   80.9582   11.4511 C.ar    1  UNL1        0.0196
     11 C          62.6092   79.6716   12.0469 C.ar    1  UNL1        0.0016
     12 C          62.0775   79.6488   13.4493 C.ar    1  UNL1        0.0006
     13 C          62.0353   80.9127   14.2560 C.ar    1  UNL1        0.0080
     14 C          62.5247   82.1993   13.6603 C.ar    1  UNL1        0.0485
     15 S          62.6061   83.5928   14.2094 S.2     1  UNL1       -0.0665
     16 N          64.2210   90.3671   13.6336 N.pl3   1  UNL1       -0.3024
     17 C          66.0454   91.7815   14.8257 C.3     1  UNL1        0.0232
     18 C          64.8177   90.9223   14.8929 C.3     1  UNL1        0.0912
     19 C          63.8825   91.2845   12.4962 C.3     1  UNL1        0.1366
     20 C          62.7631   90.9372   11.5601 C.ar    1  UNL1        0.0745
     21 C          62.8816   90.7443   10.0772 C.ar    1  UNL1        0.1148
     22 N          61.5203   90.4097    9.5431 N.ar    1  UNL1       -0.2228
     23 C          60.5607   90.3956   10.6959 C.ar    1  UNL1        0.1748
     24 N          61.3287   90.7216   11.9424 N.ar    1  UNL1       -0.3369
     25 H          60.9567   90.7833   12.8518 H       1  UNL1        0.1672
@<TRIPOS>BOND
     1    17    18    1
     2    18    16    1
     3    16    19    1
     4    19    20    1
     5    20    21   ar
     6    21    22   ar
     7    22    23   ar
     8    23    24   ar
     9    16     1    1
    10     1     2   ar
    11     2     3   ar
    12     3     4   ar
    13     4     7    1
    14     7     8   ar
    15     8     9   ar
    16     9    10   ar
    17    10    11   ar
    18    11    12   ar
    19    12    13   ar
    20    13    14   ar
    21    14    15   ar
    22     4     5   ar
    23     5     6   ar
    24    24    20   ar
    25     6     1   ar
    26    15     7   ar
    27    14     9   ar
    28    24    25    1
