@<TRIPOS>MOLECULE
*****
 29 32 0 0 0
SMALL
GASTEIGER

@<TRIPOS>ATOM
      1 C          62.2334   86.4210   10.8285 C.3     1  UNL1        0.0463
      2 N          62.7264   81.4973   12.4143 N.pl3   1  UNL1       -0.3441
      3 C          62.9380   82.9642   12.6461 C.ar    1  UNL1        0.1035
      4 C          62.4799   83.9592   11.6215 C.ar    1  UNL1        0.0296
      5 C          62.6915   85.4260   11.8533 C.ar    1  UNL1        0.0067
      6 C          63.3611   85.8977   13.1099 C.ar    1  UNL1        0.1365
      7 N          63.7034   87.2697   13.6105 N.ar    1  UNL1       -0.1258
      8 N          64.3731   87.1225   14.9446 N.ar    1  UNL1       -0.0406
      9 N          64.4446   85.6596   15.2685 N.ar    1  UNL1       -0.1095
     10 C          63.8192   84.9027   14.1346 C.ar    1  UNL1        0.1838
     11 N          63.6076   83.4359   13.9027 N.ar    1  UNL1       -0.3249
     12 H          62.2869   81.1877   11.5896 H       1  UNL1        0.1437
     13 H          63.0271   80.8443   13.0869 H       1  UNL1        0.1437
     14 H          63.9083   82.7828   14.5753 H       1  UNL1        0.1686
     15 C          61.9290   85.9714    9.4302 C.ar    1  UNL1       -0.0184
     16 C          60.5615   86.1885    8.8536 C.ar    1  UNL1       -0.0040
     17 C          60.2571   85.7388    7.4553 C.ar    1  UNL1       -0.0003
     18 C          61.3203   85.0720    6.6337 C.ar    1  UNL1       -0.0000
     19 C          62.6879   84.8549    7.2104 C.ar    1  UNL1       -0.0003
     20 C          62.9923   85.3046    8.6087 C.ar    1  UNL1       -0.0040
     21 C          62.0796   87.8656   11.2020 C.3     1  UNL1        0.0091
     22 C          62.4426   88.9375   10.2175 C.3     1  UNL1        0.0053
     23 C          62.3447   90.3816   10.6110 C.3     1  UNL1        0.0264
     24 C          63.4877   91.0447   11.3209 C.ar    1  UNL1       -0.0222
     25 C          63.7506   90.7409   12.7661 C.ar    1  UNL1       -0.0043
     26 C          64.8936   91.4039   13.4760 C.ar    1  UNL1       -0.0003
     27 C          65.7736   92.3708   12.7408 C.ar    1  UNL1       -0.0000
     28 C          65.5107   92.6747   11.2956 C.ar    1  UNL1       -0.0003
     29 C          64.3677   92.0116   10.5856 C.ar    1  UNL1       -0.0043
@<TRIPOS>BOND
     1     2     3    1
     2     3     4   ar
     3     4     5   ar
     4     5     1    1
     5     1    21    1
     6    21    22    1
     7    22    23    1
     8    23    24    1
     9    24    25   ar
    10    25    26   ar
    11    26    27   ar
    12    27    28   ar
    13    28    29   ar
    14     1    15    1
    15    15    16   ar
    16    16    17   ar
    17    17    18   ar
    18    18    19   ar
    19    19    20   ar
    20     5     6   ar
    21     6     7   ar
    22     7     8   ar
    23     8     9   ar
    24     9    10   ar
    25    10    11   ar
    26    11     3   ar
    27    29    24   ar
    28    20    15   ar
    29    10     6    1
    30     2    12    1
    31     2    13    1
    32    11    14    1
@<TRIPOS>MOLECULE
*****
 29 32 0 0 0
SMALL
GASTEIGER

@<TRIPOS>ATOM
      1 C          64.0478   90.3320   13.6250 C.3     1  UNL1        0.0463
      2 N          68.1372   92.1861   16.2403 N.pl3   1  UNL1       -0.3441
      3 C          67.2829   92.1686   15.0074 C.ar    1  UNL1        0.1035
      4 C          66.0926   91.2591   14.9326 C.ar    1  UNL1        0.0296
      5 C          65.2382   91.2416   13.6997 C.ar    1  UNL1        0.0067
      6 C          65.5744   92.1337   12.5417 C.ar    1  UNL1        0.1365
      7 N          64.9220   92.3329   11.2058 N.ar    1  UNL1       -0.1258
      8 N          65.7093   93.3656   10.4549 N.ar    1  UNL1       -0.0406
      9 N          66.8482   93.8047   11.3268 N.ar    1  UNL1       -0.1095
     10 C          66.7648   93.0433   12.6165 C.ar    1  UNL1        0.1838
     11 N          67.6191   93.0607   13.8494 N.ar    1  UNL1       -0.3249
     12 H          67.9166   91.6006   17.0004 H       1  UNL1        0.1437
     13 H          68.9185   92.7831   16.2893 H       1  UNL1        0.1437
     14 H          68.4004   93.6577   13.8985 H       1  UNL1        0.1686
     15 C          63.8679   89.2469   14.6449 C.ar    1  UNL1       -0.0184
     16 C          64.3412   87.8545   14.3500 C.ar    1  UNL1       -0.0040
     17 C          64.1613   86.7694   15.3699 C.ar    1  UNL1       -0.0003
     18 C          63.5081   87.0768   16.6848 C.ar    1  UNL1       -0.0000
     19 C          63.0348   88.4693   16.9797 C.ar    1  UNL1       -0.0003
     20 C          63.2147   89.5544   15.9598 C.ar    1  UNL1       -0.0040
     21 C          63.0374   90.5075   12.5304 C.3     1  UNL1        0.0091
     22 C          62.7420   89.3738   11.5936 C.3     1  UNL1        0.0053
     23 C          62.1754   89.6532   10.2332 C.3     1  UNL1        0.0264
     24 C          61.4556   88.5714    9.4837 C.ar    1  UNL1       -0.0222
     25 C          62.0107   87.1780    9.4611 C.ar    1  UNL1       -0.0043
     26 C          61.2910   86.0961    8.7117 C.ar    1  UNL1       -0.0003
     27 C          60.0163   86.4077    7.9849 C.ar    1  UNL1       -0.0000
     28 C          59.4613   87.8010    8.0076 C.ar    1  UNL1       -0.0003
     29 C          60.1810   88.8829    8.7570 C.ar    1  UNL1       -0.0043
@<TRIPOS>BOND
     1     2     3    1
     2     3     4   ar
     3     4     5   ar
     4     5     1    1
     5     1    21    1
     6    21    22    1
     7    22    23    1
     8    23    24    1
     9    24    25   ar
    10    25    26   ar
    11    26    27   ar
    12    27    28   ar
    13    28    29   ar
    14     1    15    1
    15    15    16   ar
    16    16    17   ar
    17    17    18   ar
    18    18    19   ar
    19    19    20   ar
    20     5     6   ar
    21     6     7   ar
    22     7     8   ar
    23     8     9   ar
    24     9    10   ar
    25    10    11   ar
    26    11     3   ar
    27    29    24   ar
    28    20    15   ar
    29    10     6    1
    30     2    12    1
    31     2    13    1
    32    11    14    1
@<TRIPOS>MOLECULE
*****
 29 32 0 0 0
SMALL
GASTEIGER

@<TRIPOS>ATOM
      1 C          65.5420   92.2541   12.3592 C.3     1  UNL1        0.0463
      2 N          69.0800   94.0351   15.7224 N.pl3   1  UNL1       -0.3441
      3 C          67.7505   93.3947   15.4530 C.ar    1  UNL1        0.1035
      4 C          67.3110   93.1446   14.0409 C.ar    1  UNL1        0.0296
      5 C          65.9815   92.5042   13.7714 C.ar    1  UNL1        0.0067
      6 C          65.0917   92.1140   14.9142 C.ar    1  UNL1        0.1365
      7 N          63.7373   91.4709   14.9573 N.ar    1  UNL1       -0.1258
      8 N          63.3398   91.3236   16.3961 N.ar    1  UNL1       -0.0406
      9 N          64.4485   91.8756   17.2422 N.ar    1  UNL1       -0.1095
     10 C          65.5313   92.3642   16.3263 C.ar    1  UNL1        0.1838
     11 N          66.8607   93.0045   16.5957 N.ar    1  UNL1       -0.3249
     12 H          69.6641   94.2912   14.9724 H       1  UNL1        0.1437
     13 H          69.3685   94.1992   16.6493 H       1  UNL1        0.1437
     14 H          67.1492   93.1687   17.5226 H       1  UNL1        0.1686
     15 C          66.2852   92.8856   11.2195 C.ar    1  UNL1       -0.0184
     16 C          65.9011   94.2540   10.7401 C.ar    1  UNL1       -0.0040
     17 C          66.6443   94.8855    9.6005 C.ar    1  UNL1       -0.0003
     18 C          67.7716   94.1485    8.9401 C.ar    1  UNL1       -0.0000
     19 C          68.1557   92.7801    9.4194 C.ar    1  UNL1       -0.0003
     20 C          67.4125   92.1486   10.5591 C.ar    1  UNL1       -0.0040
     21 C          64.3594   91.3726   12.0867 C.3     1  UNL1        0.0091
     22 C          63.8268   91.2426   10.6905 C.3     1  UNL1        0.0053
     23 C          62.3834   90.9010   10.4672 C.3     1  UNL1        0.0264
     24 C          61.9630   89.4667   10.3399 C.ar    1  UNL1       -0.0222
     25 C          60.9381   89.0735    9.3177 C.ar    1  UNL1       -0.0043
     26 C          60.5176   87.6393    9.1904 C.ar    1  UNL1       -0.0003
     27 C          61.1221   86.5983   10.0853 C.ar    1  UNL1       -0.0000
     28 C          62.1471   86.9915   11.1075 C.ar    1  UNL1       -0.0003
     29 C          62.5675   88.4257   11.2348 C.ar    1  UNL1       -0.0043
@<TRIPOS>BOND
     1     2     3    1
     2     3     4   ar
     3     4     5   ar
     4     5     1    1
     5     1    21    1
     6    21    22    1
     7    22    23    1
     8    23    24    1
     9    24    25   ar
    10    25    26   ar
    11    26    27   ar
    12    27    28   ar
    13    28    29   ar
    14     1    15    1
    15    15    16   ar
    16    16    17   ar
    17    17    18   ar
    18    18    19   ar
    19    19    20   ar
    20     5     6   ar
    21     6     7   ar
    22     7     8   ar
    23     8     9   ar
    24     9    10   ar
    25    10    11   ar
    26    11     3   ar
    27    29    24   ar
    28    20    15   ar
    29    10     6    1
    30     2    12    1
    31     2    13    1
    32    11    14    1
@<TRIPOS>MOLECULE
*****
 29 32 0 0 0
SMALL
GASTEIGER

@<TRIPOS>ATOM
      1 C          64.7137   92.1221   11.1657 C.3     1  UNL1        0.0463
      2 N          62.6358   89.7171   15.2766 N.pl3   1  UNL1       -0.3441
      3 C          63.6960   90.5990   14.6863 C.ar    1  UNL1        0.1035
      4 C          63.6748   90.9196   13.2212 C.ar    1  UNL1        0.0296
      5 C          64.7350   91.8014   12.6309 C.ar    1  UNL1        0.0067
      6 C          65.8165   92.3626   13.5059 C.ar    1  UNL1        0.1365
      7 N          66.9859   93.2540   13.2094 N.ar    1  UNL1       -0.1258
      8 N          67.7298   93.4842   14.4914 N.ar    1  UNL1       -0.0406
      9 N          67.0203   92.7351   15.5802 N.ar    1  UNL1       -0.1095
     10 C          65.8377   92.0419   14.9711 C.ar    1  UNL1        0.1838
     11 N          64.7775   91.1601   15.5613 N.ar    1  UNL1       -0.3249
     12 H          61.9260   89.3488   14.7024 H       1  UNL1        0.1437
     13 H          62.6498   89.5067   16.2383 H       1  UNL1        0.1437
     14 H          64.7914   90.9496   16.5229 H       1  UNL1        0.1686
     15 C          65.8540   92.8740   10.5459 C.ar    1  UNL1       -0.0184
     16 C          67.0792   92.1376   10.0916 C.ar    1  UNL1       -0.0040
     17 C          68.2196   92.8895    9.4718 C.ar    1  UNL1       -0.0003
     18 C          68.1347   94.3780    9.3063 C.ar    1  UNL1       -0.0000
     19 C          66.9095   95.1144    9.7607 C.ar    1  UNL1       -0.0003
     20 C          65.7692   94.3625   10.3805 C.ar    1  UNL1       -0.0040
     21 C          63.5521   91.6907   10.3204 C.3     1  UNL1        0.0091
     22 C          63.1291   90.2517   10.3053 C.3     1  UNL1        0.0053
     23 C          61.6719   89.8988   10.2585 C.3     1  UNL1        0.0264
     24 C          61.2168   88.6916    9.4932 C.ar    1  UNL1       -0.0222
     25 C          61.9791   87.4043    9.6005 C.ar    1  UNL1       -0.0043
     26 C          61.5240   86.1971    8.8352 C.ar    1  UNL1       -0.0003
     27 C          60.3066   86.2773    7.9627 C.ar    1  UNL1       -0.0000
     28 C          59.5442   87.5647    7.8554 C.ar    1  UNL1       -0.0003
     29 C          59.9993   88.7719    8.6207 C.ar    1  UNL1       -0.0043
@<TRIPOS>BOND
     1     2     3    1
     2     3     4   ar
     3     4     5   ar
     4     5     1    1
     5     1    21    1
     6    21    22    1
     7    22    23    1
     8    23    24    1
     9    24    25   ar
    10    25    26   ar
    11    26    27   ar
    12    27    28   ar
    13    28    29   ar
    14     1    15    1
    15    15    16   ar
    16    16    17   ar
    17    17    18   ar
    18    18    19   ar
    19    19    20   ar
    20     5     6   ar
    21     6     7   ar
    22     7     8   ar
    23     8     9   ar
    24     9    10   ar
    25    10    11   ar
    26    11     3   ar
    27    29    24   ar
    28    20    15   ar
    29    10     6    1
    30     2    12    1
    31     2    13    1
    32    11    14    1
@<TRIPOS>MOLECULE
*****
 29 32 0 0 0
SMALL
GASTEIGER

@<TRIPOS>ATOM
      1 C          61.8192   86.7515   10.5965 C.3     1  UNL1        0.0463
      2 N          63.5732   91.5782    9.8044 N.pl3   1  UNL1       -0.3441
      3 C          62.5144   90.6490   10.3198 C.ar    1  UNL1        0.1035
      4 C          62.6962   89.1649   10.2005 C.ar    1  UNL1        0.0296
      5 C          61.6373   88.2357   10.7159 C.ar    1  UNL1        0.0067
      6 C          60.3968   88.7907   11.3506 C.ar    1  UNL1        0.1365
      7 N          59.1904   88.1266   11.9452 N.ar    1  UNL1       -0.1258
      8 N          58.2630   89.2004   12.4320 N.ar    1  UNL1       -0.0406
      9 N          58.8962   90.5281   12.1383 N.ar    1  UNL1       -0.1095
     10 C          60.2150   90.2749   11.4699 C.ar    1  UNL1        0.1838
     11 N          61.2738   91.2040   10.9545 N.ar    1  UNL1       -0.3249
     12 H          64.3875   91.2139    9.3878 H       1  UNL1        0.1437
     13 H          63.4539   92.5523    9.8827 H       1  UNL1        0.1437
     14 H          61.1545   92.1781   11.0328 H       1  UNL1        0.1686
     15 C          61.7699   86.0959    9.2483 C.ar    1  UNL1       -0.0184
     16 C          60.5170   86.1647    8.4264 C.ar    1  UNL1       -0.0040
     17 C          60.4677   85.5091    7.0781 C.ar    1  UNL1       -0.0003
     18 C          61.6712   84.7848    6.5518 C.ar    1  UNL1       -0.0000
     19 C          62.9240   84.7161    7.3738 C.ar    1  UNL1       -0.0003
     20 C          62.9734   85.3716    8.7220 C.ar    1  UNL1       -0.0040
     21 C          62.0504   85.9230   11.8254 C.3     1  UNL1        0.0091
     22 C          63.3004   86.1116   12.6328 C.3     1  UNL1        0.0053
     23 C          63.8002   85.0033   13.5113 C.3     1  UNL1        0.0264
     24 C          63.2590   83.6140   13.3472 C.ar    1  UNL1       -0.0222
     25 C          63.5696   82.8299   12.1067 C.ar    1  UNL1       -0.0043
     26 C          63.0285   81.4406   11.9424 C.ar    1  UNL1       -0.0003
     27 C          62.1769   80.8354   13.0187 C.ar    1  UNL1       -0.0000
     28 C          61.8663   81.6195   14.2591 C.ar    1  UNL1       -0.0003
     29 C          62.4074   83.0088   14.4234 C.ar    1  UNL1       -0.0043
@<TRIPOS>BOND
     1     2     3    1
     2     3     4   ar
     3     4     5   ar
     4     5     1    1
     5     1    21    1
     6    21    22    1
     7    22    23    1
     8    23    24    1
     9    24    25   ar
    10    25    26   ar
    11    26    27   ar
    12    27    28   ar
    13    28    29   ar
    14     1    15    1
    15    15    16   ar
    16    16    17   ar
    17    17    18   ar
    18    18    19   ar
    19    19    20   ar
    20     5     6   ar
    21     6     7   ar
    22     7     8   ar
    23     8     9   ar
    24     9    10   ar
    25    10    11   ar
    26    11     3   ar
    27    29    24   ar
    28    20    15   ar
    29    10     6    1
    30     2    12    1
    31     2    13    1
    32    11    14    1
@<TRIPOS>MOLECULE
*****
 29 32 0 0 0
SMALL
GASTEIGER

@<TRIPOS>ATOM
      1 C          62.1296   86.8783   11.0376 C.3     1  UNL1        0.0463
      2 N          63.0055   91.8220    9.6981 N.pl3   1  UNL1       -0.3441
      3 C          63.1323   90.7023   10.6882 C.ar    1  UNL1        0.1035
      4 C          62.5676   89.3502   10.3678 C.ar    1  UNL1        0.0296
      5 C          62.6944   88.2305   11.3580 C.ar    1  UNL1        0.0067
      6 C          63.3860   88.4631   12.6686 C.ar    1  UNL1        0.1365
      7 N          63.6608   87.5582   13.8329 N.ar    1  UNL1       -0.1258
      8 N          64.3955   88.3512   14.8728 N.ar    1  UNL1       -0.0406
      9 N          64.5746   89.7461   14.3513 N.ar    1  UNL1       -0.1095
     10 C          63.9507   89.8153   12.9890 C.ar    1  UNL1        0.1838
     11 N          63.8239   90.9349   11.9988 N.ar    1  UNL1       -0.3249
     12 H          62.5516   91.6693    8.8379 H       1  UNL1        0.1437
     13 H          63.3761   92.7094    9.9084 H       1  UNL1        0.1437
     14 H          64.1945   91.8224   12.2091 H       1  UNL1        0.1686
     15 C          61.3077   86.6835    9.7980 C.ar    1  UNL1       -0.0184
     16 C          59.9432   87.2986    9.6986 C.ar    1  UNL1       -0.0040
     17 C          59.1213   87.1038    8.4590 C.ar    1  UNL1       -0.0003
     18 C          59.6638   86.2938    7.3190 C.ar    1  UNL1       -0.0000
     19 C          61.0282   85.6787    7.4185 C.ar    1  UNL1       -0.0003
     20 C          61.8501   85.8735    8.6580 C.ar    1  UNL1       -0.0040
     21 C          62.3868   85.7211   11.9566 C.3     1  UNL1        0.0091
     22 C          63.5445   84.8025   11.6999 C.3     1  UNL1        0.0053
     23 C          63.3054   83.4355   11.1307 C.3     1  UNL1        0.0264
     24 C          62.8786   82.3129   12.0294 C.ar    1  UNL1       -0.0222
     25 C          62.9598   80.8946   11.5480 C.ar    1  UNL1       -0.0043
     26 C          62.5330   79.7719   12.4466 C.ar    1  UNL1       -0.0003
     27 C          62.0250   80.0676   13.8266 C.ar    1  UNL1       -0.0000
     28 C          61.9438   81.4860   14.3080 C.ar    1  UNL1       -0.0003
     29 C          62.3706   82.6086   13.4094 C.ar    1  UNL1       -0.0043
@<TRIPOS>BOND
     1     2     3    1
     2     3     4   ar
     3     4     5   ar
     4     5     1    1
     5     1    21    1
     6    21    22    1
     7    22    23    1
     8    23    24    1
     9    24    25   ar
    10    25    26   ar
    11    26    27   ar
    12    27    28   ar
    13    28    29   ar
    14     1    15    1
    15    15    16   ar
    16    16    17   ar
    17    17    18   ar
    18    18    19   ar
    19    19    20   ar
    20     5     6   ar
    21     6     7   ar
    22     7     8   ar
    23     8     9   ar
    24     9    10   ar
    25    10    11   ar
    26    11     3   ar
    27    29    24   ar
    28    20    15   ar
    29    10     6    1
    30     2    12    1
    31     2    13    1
    32    11    14    1
@<TRIPOS>MOLECULE
*****
 29 32 0 0 0
SMALL
GASTEIGER

@<TRIPOS>ATOM
      1 C          63.5218   90.2733   12.8539 C.3     1  UNL1        0.0463
      2 N          65.8568   93.6570    9.6760 N.pl3   1  UNL1       -0.3441
      3 C          65.6480   93.0991   11.0526 C.ar    1  UNL1        0.1035
      4 C          64.6894   91.9652   11.2649 C.ar    1  UNL1        0.0296
      5 C          64.4806   91.4073   12.6416 C.ar    1  UNL1        0.0067
      6 C          65.2306   91.9833   13.8060 C.ar    1  UNL1        0.1365
      7 N          65.2315   91.6429   15.2668 N.ar    1  UNL1       -0.1258
      8 N          66.1908   92.5664   15.9573 N.ar    1  UNL1       -0.0406
      9 N          66.7827   93.4776   14.9233 N.ar    1  UNL1       -0.1095
     10 C          66.1893   93.1173   13.5936 C.ar    1  UNL1        0.1838
     11 N          66.3980   93.6751   12.2170 N.ar    1  UNL1       -0.3249
     12 H          65.3646   93.2790    8.9117 H       1  UNL1        0.1437
     13 H          66.4860   94.4013    9.5366 H       1  UNL1        0.1437
     14 H          67.0272   94.4194   12.0776 H       1  UNL1        0.1686
     15 C          62.5082   89.9409   11.7994 C.ar    1  UNL1       -0.0184
     16 C          62.7723   88.8274   10.8297 C.ar    1  UNL1       -0.0040
     17 C          61.7587   88.4950    9.7752 C.ar    1  UNL1       -0.0003
     18 C          60.4809   89.2761    9.6903 C.ar    1  UNL1       -0.0000
     19 C          60.2168   90.3897   10.6600 C.ar    1  UNL1       -0.0003
     20 C          61.2305   90.7221   11.7145 C.ar    1  UNL1       -0.0040
     21 C          63.5768   89.4718   14.1206 C.3     1  UNL1        0.0091
     22 C          64.5895   88.3755   14.2710 C.3     1  UNL1        0.0053
     23 C          64.1898   87.0635   14.8782 C.3     1  UNL1        0.0264
     24 C          63.9701   85.8668   14.0008 C.ar    1  UNL1       -0.0222
     25 C          63.0894   85.9753   12.7913 C.ar    1  UNL1       -0.0043
     26 C          62.8697   84.7787   11.9139 C.ar    1  UNL1       -0.0003
     27 C          63.5305   83.4738   12.2459 C.ar    1  UNL1       -0.0000
     28 C          64.4111   83.3653   13.4553 C.ar    1  UNL1       -0.0003
     29 C          64.6309   84.5619   14.3328 C.ar    1  UNL1       -0.0043
@<TRIPOS>BOND
     1     2     3    1
     2     3     4   ar
     3     4     5   ar
     4     5     1    1
     5     1    21    1
     6    21    22    1
     7    22    23    1
     8    23    24    1
     9    24    25   ar
    10    25    26   ar
    11    26    27   ar
    12    27    28   ar
    13    28    29   ar
    14     1    15    1
    15    15    16   ar
    16    16    17   ar
    17    17    18   ar
    18    18    19   ar
    19    19    20   ar
    20     5     6   ar
    21     6     7   ar
    22     7     8   ar
    23     8     9   ar
    24     9    10   ar
    25    10    11   ar
    26    11     3   ar
    27    29    24   ar
    28    20    15   ar
    29    10     6    1
    30     2    12    1
    31     2    13    1
    32    11    14    1
@<TRIPOS>MOLECULE
*****
 29 32 0 0 0
SMALL
GASTEIGER

@<TRIPOS>ATOM
      1 C          62.4014   85.8234   11.4181 C.3     1  UNL1        0.0463
      2 N          62.8060   90.9799   11.9162 N.pl3   1  UNL1       -0.3441
      3 C          62.2287   89.7833   11.2196 C.ar    1  UNL1        0.1035
      4 C          62.6037   88.4017   11.6671 C.ar    1  UNL1        0.0296
      5 C          62.0264   87.2051   10.9706 C.ar    1  UNL1        0.0067
      6 C          61.0740   87.3904    9.8266 C.ar    1  UNL1        0.1365
      7 N          60.3500   86.4082    8.9543 N.ar    1  UNL1       -0.1258
      8 N          59.5275   87.1828    7.9677 N.ar    1  UNL1       -0.0406
      9 N          59.7432   88.6438    8.2302 N.ar    1  UNL1       -0.1095
     10 C          60.6990   88.7721    9.3791 C.ar    1  UNL1        0.1838
     11 N          61.2763   89.9686   10.0757 N.ar    1  UNL1       -0.3249
     12 H          63.4310   90.8584   12.6670 H       1  UNL1        0.1437
     13 H          62.5598   91.8867   11.6225 H       1  UNL1        0.1437
     14 H          61.0302   90.8755    9.7820 H       1  UNL1        0.1686
     15 C          62.8217   85.5832   12.8379 C.ar    1  UNL1       -0.0184
     16 C          62.0854   84.5829   13.6789 C.ar    1  UNL1       -0.0040
     17 C          62.5056   84.3427   15.0986 C.ar    1  UNL1       -0.0003
     18 C          63.6621   85.1028   15.6773 C.ar    1  UNL1       -0.0000
     19 C          64.3984   86.1030   14.8363 C.ar    1  UNL1       -0.0003
     20 C          63.9781   86.3433   13.4166 C.ar    1  UNL1       -0.0040
     21 C          62.3562   84.6821   10.4459 C.3     1  UNL1        0.0091
     22 C          63.5856   84.3062    9.6731 C.3     1  UNL1        0.0053
     23 C          64.3458   83.0636   10.0310 C.3     1  UNL1        0.0264
     24 C          63.9750   82.2847   11.2582 C.ar    1  UNL1       -0.0222
     25 C          62.8907   81.2504   11.1907 C.ar    1  UNL1       -0.0043
     26 C          62.5198   80.4715   12.4178 C.ar    1  UNL1       -0.0003
     27 C          63.2332   80.7270   13.7123 C.ar    1  UNL1       -0.0000
     28 C          64.3174   81.7613   13.7797 C.ar    1  UNL1       -0.0003
     29 C          64.6884   82.5402   12.5527 C.ar    1  UNL1       -0.0043
@<TRIPOS>BOND
     1     2     3    1
     2     3     4   ar
     3     4     5   ar
     4     5     1    1
     5     1    21    1
     6    21    22    1
     7    22    23    1
     8    23    24    1
     9    24    25   ar
    10    25    26   ar
    11    26    27   ar
    12    27    28   ar
    13    28    29   ar
    14     1    15    1
    15    15    16   ar
    16    16    17   ar
    17    17    18   ar
    18    18    19   ar
    19    19    20   ar
    20     5     6   ar
    21     6     7   ar
    22     7     8   ar
    23     8     9   ar
    24     9    10   ar
    25    10    11   ar
    26    11     3   ar
    27    29    24   ar
    28    20    15   ar
    29    10     6    1
    30     2    12    1
    31     2    13    1
    32    11    14    1
@<TRIPOS>MOLECULE
*****
 29 32 0 0 0
SMALL
GASTEIGER

@<TRIPOS>ATOM
      1 C          63.3666   89.2835   12.6560 C.3     1  UNL1        0.0463
      2 N          66.8738   93.0753   12.0878 N.pl3   1  UNL1       -0.3441
      3 C          65.9127   92.3134   12.9515 C.ar    1  UNL1        0.1035
      4 C          65.1202   91.1795   12.3719 C.ar    1  UNL1        0.0296
      5 C          64.1591   90.4175   13.2356 C.ar    1  UNL1        0.0067
      6 C          63.9907   90.7896   14.6789 C.ar    1  UNL1        0.1365
      7 N          63.1255   90.2252   15.7666 N.ar    1  UNL1       -0.1258
      8 N          63.3834   91.0103   17.0184 N.ar    1  UNL1       -0.0406
      9 N          64.4079   92.0600   16.7044 N.ar    1  UNL1       -0.1095
     10 C          64.7832   91.9236   15.2585 C.ar    1  UNL1        0.1838
     11 N          65.7442   92.6855   14.3948 N.ar    1  UNL1       -0.3249
     12 H          66.9844   92.8311   11.1405 H       1  UNL1        0.1437
     13 H          67.3939   93.8196   12.4683 H       1  UNL1        0.1437
     14 H          66.2644   93.4298   14.7752 H       1  UNL1        0.1686
     15 C          62.2371   89.5646   11.7097 C.ar    1  UNL1       -0.0184
     16 C          60.8588   89.8218   12.2425 C.ar    1  UNL1       -0.0040
     17 C          59.7293   90.1029   11.2963 C.ar    1  UNL1       -0.0003
     18 C          59.9783   90.1267    9.8173 C.ar    1  UNL1       -0.0000
     19 C          61.3566   89.8694    9.2845 C.ar    1  UNL1       -0.0003
     20 C          62.4861   89.5883   10.2307 C.ar    1  UNL1       -0.0040
     21 C          63.7035   87.8686   13.0225 C.3     1  UNL1        0.0091
     22 C          62.7451   86.7613   12.6980 C.3     1  UNL1        0.0053
     23 C          63.0723   85.7806   11.6112 C.3     1  UNL1        0.0264
     24 C          62.3265   85.8258   10.3105 C.ar    1  UNL1       -0.0222
     25 C          62.9613   85.2870    9.0629 C.ar    1  UNL1       -0.0043
     26 C          62.2156   85.3322    7.7622 C.ar    1  UNL1       -0.0003
     27 C          60.8350   85.9163    7.7092 C.ar    1  UNL1       -0.0000
     28 C          60.2002   86.4552    8.9568 C.ar    1  UNL1       -0.0003
     29 C          60.9459   86.4099   10.2575 C.ar    1  UNL1       -0.0043
@<TRIPOS>BOND
     1     2     3    1
     2     3     4   ar
     3     4     5   ar
     4     5     1    1
     5     1    21    1
     6    21    22    1
     7    22    23    1
     8    23    24    1
     9    24    25   ar
    10    25    26   ar
    11    26    27   ar
    12    27    28   ar
    13    28    29   ar
    14     1    15    1
    15    15    16   ar
    16    16    17   ar
    17    17    18   ar
    18    18    19   ar
    19    19    20   ar
    20     5     6   ar
    21     6     7   ar
    22     7     8   ar
    23     8     9   ar
    24     9    10   ar
    25    10    11   ar
    26    11     3   ar
    27    29    24   ar
    28    20    15   ar
    29    10     6    1
    30     2    12    1
    31     2    13    1
    32    11    14    1
