@<TRIPOS>MOLECULE
*****
 44 49 0 0 0
SMALL
GASTEIGER

@<TRIPOS>ATOM
      1 C          59.8333   90.1539    6.3417 C.2     1  UNL1        0.0332
      2 C          58.3544   90.3624    6.2030 C.2     1  UNL1        0.0101
      3 C          57.8165   91.1947    5.0769 C.2     1  UNL1        0.0255
      4 C          56.3375   91.4031    4.9383 C.3     1  UNL1        0.0351
      5 C          58.7577   91.8185    4.0894 C.2     1  UNL1        0.2278
      6 N          58.5222   92.6824    2.8860 N.2     1  UNL1       -0.0345
      7 C          59.8556   93.0078    2.2810 C.2     1  UNL1        0.3649
      8 N          60.9152   92.3451    3.1104 N.2     1  UNL1       -0.0380
      9 C          60.2367   91.6100    4.2281 C.2     1  UNL1        0.2184
     10 C          60.7745   90.7777    5.3542 C.3     1  UNL1        0.1186
     11 C          60.0885   93.8485    1.0607 C.3     1  UNL1        0.2250
     12 C          59.2660   93.6234   -0.1733 C.2     1  UNL1        0.0436
     13 C          59.4990   94.4641   -1.3935 C.2     1  UNL1        0.0288
     14 C          60.5544   95.5299   -1.3798 C.2     1  UNL1        0.0896
     15 N          61.3770   95.7549   -0.1458 N.am    1  UNL1       -0.1770
     16 C          61.1440   94.9142    1.0744 C.2     1  UNL1        0.2627
     17 O          61.9665   95.1393    2.3084 O.2     1  UNL1       -0.2719
     18 N          58.2105   92.5577   -0.1871 N.pl3   1  UNL1       -0.3348
     19 H          58.3795   91.6919    0.2500 H       1  UNL1        0.1466
     20 C          56.8976   92.8111   -0.8668 C.3     1  UNL1        0.0933
     21 C          56.3879   91.8471   -1.8967 C.3     1  UNL1        0.0694
     22 C          56.5935   92.1298   -3.3554 C.ar    1  UNL1        0.0890
     23 N          57.2031   91.1947   -4.3573 N.ar    1  UNL1       -0.2274
     24 C          57.2119   91.8843   -5.6895 C.ar    1  UNL1        0.1789
     25 N          56.6078   93.2455   -5.5108 N.ar    1  UNL1       -0.2986
     26 C          56.4189   94.2744   -6.5858 C.3     1  UNL1        0.1329
     27 C          56.2255   93.3973   -4.0682 C.ar    1  UNL1        0.1338
     28 CL         55.5874   94.6045   -3.4476 Cl      1  UNL1       -0.0619
     29 C          61.4468   87.6573    9.7200 C.3     1  UNL1        0.0610
     30 C          60.7545   86.9977    8.5643 C.3     1  UNL1        0.0374
     31 C          60.2167   87.8300    7.4382 C.3     1  UNL1        0.0919
     32 N          60.3711   89.3217    7.4678 N.pl3   1  UNL1       -0.3103
     33 C          61.0634   89.9812    8.6235 C.3     1  UNL1        0.0919
     34 C          61.6013   89.1490    9.7496 C.3     1  UNL1        0.0374
     35 C          63.5982   84.3284   14.2245 C.2     1  UNL1        0.4051
     36 O          63.4033   82.8412   14.2175 O.2     1  UNL1       -0.2262
     37 N          63.0604   85.1607   13.0984 N.am    1  UNL1       -0.2432
     38 C          63.2553   86.6479   13.1054 C.3     1  UNL1        0.1141
     39 C          62.7174   87.4802   11.9793 C.3     1  UNL1        0.0940
     40 N          61.9847   86.8251   10.8462 N.3     1  UNL1       -0.2710
     41 C          61.7898   85.3378   10.8392 C.3     1  UNL1        0.0940
     42 C          62.3276   84.5056   11.9653 C.3     1  UNL1        0.1141
     43 C          63.5640   85.6475   16.4625 C.3     1  UNL1        0.2573
     44 O          64.3310   84.9835   15.3576 O.3     1  UNL1       -0.4304
@<TRIPOS>BOND
     1    43    44    1
     2    44    35    1
     3    35    36    2
     4    35    37   am
     5    37    38    1
     6    38    39    1
     7    39    40    1
     8    40    29    1
     9    29    30    1
    10    30    31    1
    11    31    32    1
    12    32     1    1
    13     1     2    2
    14     2     3    1
    15     3     4    1
    16     3     5    2
    17     5     6    1
    18     6     7    2
    19     7    11    1
    20    11    12    1
    21    12    18    1
    22    18    20    1
    23    20    21    1
    24    21    22    1
    25    22    23   ar
    26    23    24   ar
    27    24    25   ar
    28    25    26    1
    29    25    27   ar
    30    27    28    1
    31    12    13    2
    32    13    14    1
    33    14    15    2
    34    15    16    1
    35    16    17    2
    36     7     8    1
    37     8     9    2
    38     9    10    1
    39    32    33    1
    40    33    34    1
    41    40    41    1
    42    41    42    1
    43    42    37    1
    44    34    29    1
    45    10     1    1
    46     9     5    1
    47    16    11    1
    48    27    22   ar
    49    18    19    1
@<TRIPOS>MOLECULE
*****
 44 49 0 0 0
SMALL
GASTEIGER

@<TRIPOS>ATOM
      1 C          59.7944   89.8097    6.4516 C.2     1  UNL1        0.0332
      2 C          58.3225   90.0147    6.2479 C.2     1  UNL1        0.0101
      3 C          57.8367   90.9970    5.2236 C.2     1  UNL1        0.0255
      4 C          56.3648   91.2020    5.0200 C.3     1  UNL1        0.0351
      5 C          58.8229   91.7742    4.4030 C.2     1  UNL1        0.2278
      6 N          58.6427   92.8037    3.3271 N.2     1  UNL1       -0.0345
      7 C          60.0033   93.2349    2.8657 C.2     1  UNL1        0.3649
      8 N          61.0243   92.4719    3.6566 N.2     1  UNL1       -0.0380
      9 C          60.2948   91.5692    4.6067 C.2     1  UNL1        0.2184
     10 C          60.7805   90.5869    5.6310 C.3     1  UNL1        0.1186
     11 C          60.2923   94.2508    1.8006 C.3     1  UNL1        0.2250
     12 C          60.6580   93.8029    0.4165 C.2     1  UNL1        0.0436
     13 C          60.9469   94.8189   -0.6486 C.2     1  UNL1        0.0288
     14 C          60.8701   96.2826   -0.3297 C.2     1  UNL1        0.0896
     15 N          60.5043   96.7304    1.0543 N.am    1  UNL1       -0.1770
     16 C          60.2154   95.7144    2.1195 C.2     1  UNL1        0.2627
     17 O          59.8497   96.1623    3.5035 O.2     1  UNL1       -0.2719
     18 N          60.7348   92.3393    0.0975 N.pl3   1  UNL1       -0.3348
     19 H          61.5634   91.8391    0.2778 H       1  UNL1        0.1466
     20 C          59.5494   91.6378   -0.4962 C.3     1  UNL1        0.0933
     21 C          58.2775   92.3933   -0.7443 C.3     1  UNL1        0.0694
     22 C          57.9895   92.9499   -2.1071 C.ar    1  UNL1        0.0890
     23 N          58.9812   93.1127   -3.2206 N.ar    1  UNL1       -0.2274
     24 C          58.2638   93.7049   -4.3973 C.ar    1  UNL1        0.1789
     25 N          56.8288   93.9081   -4.0111 N.ar    1  UNL1       -0.2986
     26 C          55.7522   94.4777   -4.8866 C.3     1  UNL1        0.1329
     27 C          56.6592   93.4415   -2.5956 C.ar    1  UNL1        0.1338
     28 CL         55.3833   93.4627   -1.8071 Cl      1  UNL1       -0.0619
     29 C          61.2518   86.8627    9.5244 C.3     1  UNL1        0.0610
     30 C          61.4418   88.3339    9.7468 C.3     1  UNL1        0.0374
     31 C          60.9560   89.3162    8.7225 C.3     1  UNL1        0.0919
     32 N          60.2802   88.8274    7.4759 N.pl3   1  UNL1       -0.3103
     33 C          60.0901   87.3562    7.2534 C.3     1  UNL1        0.0919
     34 C          60.5759   86.3739    8.2776 C.3     1  UNL1        0.0374
     35 C          63.1949   82.9335   13.6214 C.2     1  UNL1        0.4051
     36 O          63.2064   83.3083   15.0737 O.2     1  UNL1       -0.2262
     37 N          62.7091   83.9158   12.5970 N.am    1  UNL1       -0.2432
     38 C          62.6977   83.5410   11.1448 C.3     1  UNL1        0.1141
     39 C          62.2119   84.5233   10.1204 C.3     1  UNL1        0.0940
     40 N          61.7376   85.8804   10.5486 N.3     1  UNL1       -0.2710
     41 C          61.7490   86.2552   12.0010 C.3     1  UNL1        0.0940
     42 C          62.2348   85.2729   13.0252 C.3     1  UNL1        0.1141
     43 C          62.6989   80.4359   13.1060 C.3     1  UNL1        0.2573
     44 O          63.6692   81.5764   13.1932 O.3     1  UNL1       -0.4304
@<TRIPOS>BOND
     1    43    44    1
     2    44    35    1
     3    35    36    2
     4    35    37   am
     5    37    38    1
     6    38    39    1
     7    39    40    1
     8    40    29    1
     9    29    30    1
    10    30    31    1
    11    31    32    1
    12    32     1    1
    13     1     2    2
    14     2     3    1
    15     3     4    1
    16     3     5    2
    17     5     6    1
    18     6     7    2
    19     7    11    1
    20    11    12    1
    21    12    18    1
    22    18    20    1
    23    20    21    1
    24    21    22    1
    25    22    23   ar
    26    23    24   ar
    27    24    25   ar
    28    25    26    1
    29    25    27   ar
    30    27    28    1
    31    12    13    2
    32    13    14    1
    33    14    15    2
    34    15    16    1
    35    16    17    2
    36     7     8    1
    37     8     9    2
    38     9    10    1
    39    32    33    1
    40    33    34    1
    41    40    41    1
    42    41    42    1
    43    42    37    1
    44    34    29    1
    45    10     1    1
    46     9     5    1
    47    16    11    1
    48    27    22   ar
    49    18    19    1
@<TRIPOS>MOLECULE
*****
 44 49 0 0 0
SMALL
GASTEIGER

@<TRIPOS>ATOM
      1 C          59.8040   89.9849    6.4569 C.2     1  UNL1        0.0332
      2 C          58.3210   90.1692    6.3290 C.2     1  UNL1        0.0101
      3 C          57.7629   91.0147    5.2226 C.2     1  UNL1        0.0255
      4 C          56.2797   91.1991    5.0948 C.3     1  UNL1        0.0351
      5 C          58.6880   91.6757    4.2443 C.2     1  UNL1        0.2278
      6 N          58.4312   92.5599    3.0601 N.2     1  UNL1       -0.0345
      7 C          59.7557   92.9219    2.4562 C.2     1  UNL1        0.3649
      8 N          60.8310   92.2615    3.2671 N.2     1  UNL1       -0.0380
      9 C          60.1711   91.4913    4.3722 C.2     1  UNL1        0.2184
     10 C          60.7291   90.6459    5.4785 C.3     1  UNL1        0.1186
     11 C          59.9677   93.7917    1.2526 C.3     1  UNL1        0.2250
     12 C          61.1805   94.6700    1.1662 C.2     1  UNL1        0.0436
     13 C          61.3924   95.5397   -0.0374 C.2     1  UNL1        0.0288
     14 C          60.3915   95.5312   -1.1546 C.2     1  UNL1        0.0896
     15 N          59.1786   94.6529   -1.0682 N.am    1  UNL1       -0.1770
     16 C          58.9667   93.7832    0.1355 C.2     1  UNL1        0.2627
     17 O          57.7538   92.9049    0.2219 O.2     1  UNL1       -0.2719
     18 N          62.1815   94.6786    2.2833 N.pl3   1  UNL1       -0.3348
     19 H          61.9838   95.1623    3.1177 H       1  UNL1        0.1466
     20 C          63.4837   93.9502    2.1292 C.3     1  UNL1        0.0933
     21 C          63.9246   93.4806    0.7746 C.3     1  UNL1        0.0694
     22 C          64.4422   94.4674   -0.2295 C.ar    1  UNL1        0.0890
     23 N          65.2777   95.6761    0.0720 N.ar    1  UNL1       -0.2274
     24 C          65.5670   96.3746   -1.2236 C.ar    1  UNL1        0.1789
     25 N          64.9103   95.5976   -2.3258 N.ar    1  UNL1       -0.2986
     26 C          64.9430   95.9392   -3.7860 C.3     1  UNL1        0.1329
     27 C          64.2151   94.4188   -1.7115 C.ar    1  UNL1        0.1338
     28 CL         63.4306   93.3749   -2.4494 Cl      1  UNL1       -0.0619
     29 C          61.4783   87.4487    9.7757 C.3     1  UNL1        0.0610
     30 C          60.8142   86.7995    8.5978 C.3     1  UNL1        0.0374
     31 C          60.2561   87.6449    7.4915 C.3     1  UNL1        0.0919
     32 N          60.3621   89.1394    7.5632 N.pl3   1  UNL1       -0.3103
     33 C          61.0262   89.7886    8.7411 C.3     1  UNL1        0.0919
     34 C          61.5843   88.9432    9.8474 C.3     1  UNL1        0.0374
     35 C          63.7106   84.0672   14.2010 C.2     1  UNL1        0.4051
     36 O          64.3699   84.7166   15.3814 O.2     1  UNL1       -0.2262
     37 N          63.1525   84.9126   13.0946 N.am    1  UNL1       -0.2432
     38 C          62.4932   84.2632   11.9142 C.3     1  UNL1        0.1141
     39 C          61.9351   85.1086   10.8078 C.3     1  UNL1        0.0940
     40 N          62.0363   86.6033   10.8820 N.3     1  UNL1       -0.2710
     41 C          62.6957   87.2526   12.0625 C.3     1  UNL1        0.0940
     42 C          63.2538   86.4073   13.1688 C.3     1  UNL1        0.1141
     43 C          62.2829   81.9000   14.3220 C.3     1  UNL1        0.2573
     44 O          63.6094   82.5725   14.1267 O.3     1  UNL1       -0.4304
@<TRIPOS>BOND
     1    43    44    1
     2    44    35    1
     3    35    36    2
     4    35    37   am
     5    37    38    1
     6    38    39    1
     7    39    40    1
     8    40    29    1
     9    29    30    1
    10    30    31    1
    11    31    32    1
    12    32     1    1
    13     1     2    2
    14     2     3    1
    15     3     4    1
    16     3     5    2
    17     5     6    1
    18     6     7    2
    19     7    11    1
    20    11    12    1
    21    12    18    1
    22    18    20    1
    23    20    21    1
    24    21    22    1
    25    22    23   ar
    26    23    24   ar
    27    24    25   ar
    28    25    26    1
    29    25    27   ar
    30    27    28    1
    31    12    13    2
    32    13    14    1
    33    14    15    2
    34    15    16    1
    35    16    17    2
    36     7     8    1
    37     8     9    2
    38     9    10    1
    39    32    33    1
    40    33    34    1
    41    40    41    1
    42    41    42    1
    43    42    37    1
    44    34    29    1
    45    10     1    1
    46     9     5    1
    47    16    11    1
    48    27    22   ar
    49    18    19    1
@<TRIPOS>MOLECULE
*****
 44 49 0 0 0
SMALL
GASTEIGER

@<TRIPOS>ATOM
      1 C          60.3379   90.0123    6.9177 C.2     1  UNL1        0.0332
      2 C          59.5205   88.7843    7.1890 C.2     1  UNL1        0.0101
      3 C          59.7466   87.9949    8.4443 C.2     1  UNL1        0.0255
      4 C          58.9290   86.7668    8.7155 C.3     1  UNL1        0.0351
      5 C          60.7903   88.4336    9.4283 C.2     1  UNL1        0.2278
      6 N          61.2349   87.8616   10.7417 N.2     1  UNL1       -0.0345
      7 C          62.3272   88.7361   11.2822 C.2     1  UNL1        0.3649
      8 N          62.5577   89.8486   10.3028 N.2     1  UNL1       -0.0380
      9 C          61.6078   89.6617    9.1570 C.2     1  UNL1        0.2184
     10 C          61.3816   90.4510    7.9017 C.3     1  UNL1        0.1186
     11 C          63.0603   88.5337   12.5750 C.3     1  UNL1        0.2250
     12 C          63.3857   87.1463   13.0435 C.2     1  UNL1        0.0436
     13 C          64.1189   86.9440   14.3364 C.2     1  UNL1        0.0288
     14 C          64.5267   88.1289   15.1608 C.2     1  UNL1        0.0896
     15 N          64.2012   89.5162   14.6924 N.am    1  UNL1       -0.1770
     16 C          63.4681   89.7186   13.3995 C.2     1  UNL1        0.2627
     17 O          63.1427   91.1059   12.9311 O.2     1  UNL1       -0.2719
     18 N          62.9781   85.9614   12.2191 N.pl3   1  UNL1       -0.3348
     19 H          63.1231   85.9658   11.2453 H       1  UNL1        0.1466
     20 C          62.3493   84.7697   12.8782 C.3     1  UNL1        0.0933
     21 C          63.2139   83.6813   13.4419 C.3     1  UNL1        0.0694
     22 C          62.9613   82.2517   13.0647 C.ar    1  UNL1        0.0890
     23 N          62.4516   81.1759   13.9773 N.ar    1  UNL1       -0.2274
     24 C          62.3492   79.9061   13.1852 C.ar    1  UNL1        0.1789
     25 N          62.7956   80.1971   11.7831 N.ar    1  UNL1       -0.2986
     26 C          62.8536   79.2117   10.6538 C.3     1  UNL1        0.1329
     27 C          63.1739   81.6468   11.7086 C.ar    1  UNL1        0.1338
     28 CL         63.6765   82.3654   10.4916 Cl      1  UNL1       -0.0619
     29 C          59.6597   92.3804    3.1518 C.3     1  UNL1        0.0610
     30 C          58.5009   92.0349    4.0393 C.3     1  UNL1        0.0374
     31 C          58.7271   91.2455    5.2947 C.3     1  UNL1        0.0919
     32 N          60.1118   90.8017    5.6623 N.pl3   1  UNL1       -0.3103
     33 C          61.2706   91.1472    4.7748 C.3     1  UNL1        0.0919
     34 C          61.0446   91.9365    3.5195 C.3     1  UNL1        0.0374
     35 C          58.7556   95.5379   -1.8695 C.2     1  UNL1        0.4051
     36 O          59.4475   96.8547   -2.0622 O.2     1  UNL1       -0.2262
     37 N          58.9816   94.7485   -0.6141 N.am    1  UNL1       -0.2432
     38 C          58.2897   93.4317   -0.4214 C.3     1  UNL1        0.1141
     39 C          58.5157   92.6423    0.8339 C.3     1  UNL1        0.0940
     40 N          59.4337   93.1698    1.8965 N.3     1  UNL1       -0.2710
     41 C          60.1256   94.4866    1.7037 C.3     1  UNL1        0.0940
     42 C          59.8996   95.2760    0.4484 C.3     1  UNL1        0.1141
     43 C          56.5593   95.7307   -3.2439 C.3     1  UNL1        0.2573
     44 O          57.8376   95.0105   -2.9320 O.3     1  UNL1       -0.4304
@<TRIPOS>BOND
     1    43    44    1
     2    44    35    1
     3    35    36    2
     4    35    37   am
     5    37    38    1
     6    38    39    1
     7    39    40    1
     8    40    29    1
     9    29    30    1
    10    30    31    1
    11    31    32    1
    12    32     1    1
    13     1     2    2
    14     2     3    1
    15     3     4    1
    16     3     5    2
    17     5     6    1
    18     6     7    2
    19     7    11    1
    20    11    12    1
    21    12    18    1
    22    18    20    1
    23    20    21    1
    24    21    22    1
    25    22    23   ar
    26    23    24   ar
    27    24    25   ar
    28    25    26    1
    29    25    27   ar
    30    27    28    1
    31    12    13    2
    32    13    14    1
    33    14    15    2
    34    15    16    1
    35    16    17    2
    36     7     8    1
    37     8     9    2
    38     9    10    1
    39    32    33    1
    40    33    34    1
    41    40    41    1
    42    41    42    1
    43    42    37    1
    44    34    29    1
    45    10     1    1
    46     9     5    1
    47    16    11    1
    48    27    22   ar
    49    18    19    1
@<TRIPOS>MOLECULE
*****
 44 49 0 0 0
SMALL
GASTEIGER

@<TRIPOS>ATOM
      1 C          60.3577   89.3083    8.0017 C.2     1  UNL1        0.0332
      2 C          59.5739   89.6142    9.2434 C.2     1  UNL1        0.0101
      3 C          59.7793   88.7927   10.4815 C.2     1  UNL1        0.0255
      4 C          58.9954   89.0987   11.7233 C.3     1  UNL1        0.0351
      5 C          60.7686   87.6651   10.4778 C.2     1  UNL1        0.2278
      6 N          61.1824   86.6895   11.5393 N.2     1  UNL1       -0.0345
      7 C          62.2219   85.7805   10.9536 C.2     1  UNL1        0.3649
      8 N          62.4506   86.1944    9.5301 N.2     1  UNL1       -0.0380
      9 C          61.5524   87.3592    9.2360 C.2     1  UNL1        0.2184
     10 C          61.3470   88.1808    7.9980 C.3     1  UNL1        0.1186
     11 C          62.9117   84.6552   11.6662 C.3     1  UNL1        0.2250
     12 C          63.3824   84.8384   13.0786 C.2     1  UNL1        0.0436
     13 C          64.0722   83.7130   13.7912 C.2     1  UNL1        0.0288
     14 C          64.2912   82.4044   13.0915 C.2     1  UNL1        0.0896
     15 N          63.8205   82.2212   11.6791 N.am    1  UNL1       -0.1770
     16 C          63.1307   83.3466   10.9665 C.2     1  UNL1        0.2627
     17 O          62.6600   83.1634    9.5541 O.2     1  UNL1       -0.2719
     18 N          63.1634   86.1469   13.7784 N.pl3   1  UNL1       -0.3348
     19 H          62.2922   86.6007   13.7124 H       1  UNL1        0.1466
     20 C          64.2717   86.7641   14.5789 C.3     1  UNL1        0.0933
     21 C          64.2075   88.2150   14.9544 C.3     1  UNL1        0.0694
     22 C          64.0721   89.2605   13.8874 C.ar    1  UNL1        0.0890
     23 N          63.0875   89.2431   12.7559 N.ar    1  UNL1       -0.2274
     24 C          63.3044   90.4789   11.9338 C.ar    1  UNL1        0.1789
     25 N          64.4229   91.2601   12.5571 N.ar    1  UNL1       -0.2986
     26 C          64.9708   92.5650   12.0604 C.3     1  UNL1        0.1329
     27 C          64.8974   90.5070   13.7646 C.ar    1  UNL1        0.1338
     28 CL         66.0030   90.9269   14.6872 Cl      1  UNL1       -0.0619
     29 C          59.7417   91.7730    4.2874 C.3     1  UNL1        0.0610
     30 C          58.5626   91.3605    5.1178 C.3     1  UNL1        0.0374
     31 C          58.7680   90.5389    6.3560 C.3     1  UNL1        0.0919
     32 N          60.1523   90.1299    6.7636 N.pl3   1  UNL1       -0.3103
     33 C          61.3314   90.5423    5.9331 C.3     1  UNL1        0.0919
     34 C          61.1261   91.3639    4.6950 C.3     1  UNL1        0.0374
     35 C          58.9205   95.0592   -0.6650 C.2     1  UNL1        0.4051
     36 O          59.6171   96.3792   -0.8133 O.2     1  UNL1       -0.2262
     37 N          59.1257   94.2376    0.5731 N.am    1  UNL1       -0.2432
     38 C          58.4291   92.9176    0.7213 C.3     1  UNL1        0.1141
     39 C          58.6344   92.0960    1.9594 C.3     1  UNL1        0.0940
     40 N          59.5364   92.5945    3.0493 N.3     1  UNL1       -0.2710
     41 C          60.2331   93.9146    2.9010 C.3     1  UNL1        0.0940
     42 C          60.0278   94.7362    1.6629 C.3     1  UNL1        0.1141
     43 C          56.5569   94.8974   -1.7315 C.3     1  UNL1        0.2573
     44 O          58.0184   94.5607   -1.7549 O.3     1  UNL1       -0.4304
@<TRIPOS>BOND
     1    43    44    1
     2    44    35    1
     3    35    36    2
     4    35    37   am
     5    37    38    1
     6    38    39    1
     7    39    40    1
     8    40    29    1
     9    29    30    1
    10    30    31    1
    11    31    32    1
    12    32     1    1
    13     1     2    2
    14     2     3    1
    15     3     4    1
    16     3     5    2
    17     5     6    1
    18     6     7    2
    19     7    11    1
    20    11    12    1
    21    12    18    1
    22    18    20    1
    23    20    21    1
    24    21    22    1
    25    22    23   ar
    26    23    24   ar
    27    24    25   ar
    28    25    26    1
    29    25    27   ar
    30    27    28    1
    31    12    13    2
    32    13    14    1
    33    14    15    2
    34    15    16    1
    35    16    17    2
    36     7     8    1
    37     8     9    2
    38     9    10    1
    39    32    33    1
    40    33    34    1
    41    40    41    1
    42    41    42    1
    43    42    37    1
    44    34    29    1
    45    10     1    1
    46     9     5    1
    47    16    11    1
    48    27    22   ar
    49    18    19    1
