@<TRIPOS>MOLECULE
*****
 25 28 0 0 0
SMALL
GASTEIGER

@<TRIPOS>ATOM
      1 O          64.7226   88.4610   14.9417 O.3     1  UNL1       -0.3786
      2 C          63.9962   89.1006   13.7958 C.3     1  UNL1        0.1254
      3 C          63.4292   90.1656   12.9046 C.3     1  UNL1        0.0357
      4 C          62.6554   89.7834   11.6778 C.3     1  UNL1        0.0078
      5 C          62.4484   88.3361   11.3423 C.3     1  UNL1        0.0262
      6 C          63.0154   87.2711   12.2335 C.ar    1  UNL1       -0.0237
      7 C          62.8084   85.8238   11.8979 C.ar    1  UNL1       -0.0045
      8 C          63.3754   84.7588   12.7891 C.ar    1  UNL1       -0.0003
      9 C          64.1493   85.1410   14.0159 C.ar    1  UNL1       -0.0003
     10 C          64.3562   86.5883   14.3515 C.ar    1  UNL1       -0.0020
     11 C          63.7892   87.6533   13.4602 C.ar    1  UNL1        0.0016
     12 H          65.0854   89.1504   15.5197 H       1  UNL1        0.2111
     13 C          63.1684   83.3116   12.4535 C.ar    1  UNL1        0.0001
     14 C          63.4829   82.8087   11.0758 C.ar    1  UNL1        0.0023
     15 C          63.2760   81.3614   10.7402 C.ar    1  UNL1        0.0296
     16 C          62.7546   80.4170   11.7824 C.ar    1  UNL1        0.1401
     17 F          62.5476   78.9698   11.4468 F       1  UNL1       -0.2042
     18 C          62.4400   80.9199   13.1602 C.ar    1  UNL1        0.0296
     19 C          62.6470   82.3671   13.4958 C.ar    1  UNL1        0.0023
     20 C          64.4554   90.3257   14.5294 C.ar    1  UNL1        0.0086
     21 C          65.5400   91.1846   13.9498 C.ar    1  UNL1        0.0190
     22 C          65.9992   92.4097   14.6835 C.ar    1  UNL1        0.0986
     23 N          65.3738   92.7759   15.9968 N.ar    1  UNL1       -0.2423
     24 C          64.2892   91.9170   16.5764 C.ar    1  UNL1        0.0986
     25 C          63.8300   90.6920   15.8427 C.ar    1  UNL1        0.0190
@<TRIPOS>BOND
     1     1     2    1
     2     2    20    1
     3    20    21   ar
     4    21    22   ar
     5    22    23   ar
     6    23    24   ar
     7    24    25   ar
     8     2     3    1
     9     3     4    1
    10     4     5    1
    11     5     6    1
    12     6     7   ar
    13     7     8   ar
    14     8    13    1
    15    13    14   ar
    16    14    15   ar
    17    15    16   ar
    18    16    17    1
    19    16    18   ar
    20    18    19   ar
    21     8     9   ar
    22     9    10   ar
    23    10    11   ar
    24    11     2    1
    25    25    20   ar
    26    11     6   ar
    27    19    13   ar
    28     1    12    1
@<TRIPOS>MOLECULE
*****
 25 28 0 0 0
SMALL
GASTEIGER

@<TRIPOS>ATOM
      1 O          65.1515   90.5590   13.9741 O.3     1  UNL1       -0.3786
      2 C          65.4186   91.7037   13.0423 C.3     1  UNL1        0.1254
      3 C          65.9996   92.9781   12.5054 C.3     1  UNL1        0.0357
      4 C          65.5840   93.4813   11.1548 C.3     1  UNL1        0.0078
      5 C          64.5874   92.7101   10.3412 C.3     1  UNL1        0.0262
      6 C          64.0064   91.4357   10.8780 C.ar    1  UNL1       -0.0237
      7 C          63.0098   90.6644   10.0644 C.ar    1  UNL1       -0.0045
      8 C          62.4289   89.3900   10.6012 C.ar    1  UNL1       -0.0003
      9 C          62.8445   88.8868   11.9519 C.ar    1  UNL1       -0.0003
     10 C          63.8410   89.6580   12.7655 C.ar    1  UNL1       -0.0020
     11 C          64.4220   90.9325   12.2286 C.ar    1  UNL1        0.0016
     12 H          65.6821   90.6667   14.7789 H       1  UNL1        0.2111
     13 C          61.4323   88.6188    9.7876 C.ar    1  UNL1        0.0001
     14 C          60.4377   89.3470    8.9329 C.ar    1  UNL1        0.0023
     15 C          59.4412   88.5758    8.1192 C.ar    1  UNL1        0.0296
     16 C          59.4392   87.0764    8.1602 C.ar    1  UNL1        0.1401
     17 F          58.4426   86.3051    7.3466 F       1  UNL1       -0.2042
     18 C          60.4338   86.3481    9.0150 C.ar    1  UNL1        0.0296
     19 C          61.4303   87.1193    9.8286 C.ar    1  UNL1        0.0023
     20 C          66.3224   92.0773   14.1796 C.ar    1  UNL1        0.0086
     21 C          65.7479   92.3324   15.5416 C.ar    1  UNL1        0.0190
     22 C          66.6518   92.7061   16.6789 C.ar    1  UNL1        0.0986
     23 N          68.1301   92.8246   16.4542 N.ar    1  UNL1       -0.2423
     24 C          68.7046   92.5695   15.0922 C.ar    1  UNL1        0.0986
     25 C          67.8007   92.1958   13.9550 C.ar    1  UNL1        0.0190
@<TRIPOS>BOND
     1     1     2    1
     2     2    20    1
     3    20    21   ar
     4    21    22   ar
     5    22    23   ar
     6    23    24   ar
     7    24    25   ar
     8     2     3    1
     9     3     4    1
    10     4     5    1
    11     5     6    1
    12     6     7   ar
    13     7     8   ar
    14     8    13    1
    15    13    14   ar
    16    14    15   ar
    17    15    16   ar
    18    16    17    1
    19    16    18   ar
    20    18    19   ar
    21     8     9   ar
    22     9    10   ar
    23    10    11   ar
    24    11     2    1
    25    25    20   ar
    26    11     6   ar
    27    19    13   ar
    28     1    12    1
@<TRIPOS>MOLECULE
*****
 25 28 0 0 0
SMALL
GASTEIGER

@<TRIPOS>ATOM
      1 O          61.6834   89.4450    9.7346 O.3     1  UNL1       -0.3786
      2 C          61.7915   88.1159   10.4216 C.3     1  UNL1        0.1254
      3 C          61.5768   86.6616   10.7195 C.3     1  UNL1        0.0357
      4 C          62.2541   86.0297   11.8992 C.3     1  UNL1        0.0078
      5 C          63.1461   86.8522   12.7811 C.3     1  UNL1        0.0262
      6 C          63.3609   88.3065   12.4833 C.ar    1  UNL1       -0.0237
      7 C          64.2530   89.1290   13.3652 C.ar    1  UNL1       -0.0045
      8 C          64.4677   90.5833   13.0673 C.ar    1  UNL1       -0.0003
      9 C          63.7904   91.2152   11.8875 C.ar    1  UNL1       -0.0003
     10 C          62.8983   90.3928   11.0056 C.ar    1  UNL1       -0.0020
     11 C          62.6836   88.9384   11.3035 C.ar    1  UNL1        0.0016
     12 H          61.0962   89.3652    8.9666 H       1  UNL1        0.2111
     13 C          65.3598   91.4057   13.9492 C.ar    1  UNL1        0.0001
     14 C          64.9912   91.6337   15.3852 C.ar    1  UNL1        0.0023
     15 C          65.8832   92.4561   16.2671 C.ar    1  UNL1        0.0296
     16 C          67.1440   93.0507   15.7131 C.ar    1  UNL1        0.1401
     17 F          68.0360   93.8731   16.5950 F       1  UNL1       -0.2042
     18 C          67.5127   92.8228   14.2770 C.ar    1  UNL1        0.0296
     19 C          66.6206   92.0003   13.3951 C.ar    1  UNL1        0.0023
     20 C          60.8619   87.7551    9.3010 C.ar    1  UNL1        0.0086
     21 C          60.7741   86.3346    8.8272 C.ar    1  UNL1        0.0190
     22 C          59.8444   85.9739    7.7066 C.ar    1  UNL1        0.0986
     23 N          59.0026   87.0337    7.0599 N.ar    1  UNL1       -0.2423
     24 C          59.0904   88.4542    7.5338 C.ar    1  UNL1        0.0986
     25 C          60.0201   88.8149    8.6543 C.ar    1  UNL1        0.0190
@<TRIPOS>BOND
     1     1     2    1
     2     2    20    1
     3    20    21   ar
     4    21    22   ar
     5    22    23   ar
     6    23    24   ar
     7    24    25   ar
     8     2     3    1
     9     3     4    1
    10     4     5    1
    11     5     6    1
    12     6     7   ar
    13     7     8   ar
    14     8    13    1
    15    13    14   ar
    16    14    15   ar
    17    15    16   ar
    18    16    17    1
    19    16    18   ar
    20    18    19   ar
    21     8     9   ar
    22     9    10   ar
    23    10    11   ar
    24    11     2    1
    25    25    20   ar
    26    11     6   ar
    27    19    13   ar
    28     1    12    1
@<TRIPOS>MOLECULE
*****
 25 28 0 0 0
SMALL
GASTEIGER

@<TRIPOS>ATOM
      1 O          61.7609   88.6966    9.7720 O.3     1  UNL1       -0.3786
      2 C          61.9039   87.4087   10.5275 C.3     1  UNL1        0.1254
      3 C          61.7512   85.9601   10.8853 C.3     1  UNL1        0.0357
      4 C          62.4004   85.4215   12.1257 C.3     1  UNL1        0.0078
      5 C          63.2022   86.3316   13.0082 C.3     1  UNL1        0.0262
      6 C          63.3549   87.7802   12.6503 C.ar    1  UNL1       -0.0237
      7 C          64.1567   88.6903   13.5328 C.ar    1  UNL1       -0.0045
      8 C          64.3094   90.1390   13.1750 C.ar    1  UNL1       -0.0003
      9 C          63.6602   90.6776   11.9345 C.ar    1  UNL1       -0.0003
     10 C          62.8584   89.7675   11.0521 C.ar    1  UNL1       -0.0020
     11 C          62.7057   88.3188   11.4100 C.ar    1  UNL1        0.0016
     12 H          61.2182   88.5493    8.9816 H       1  UNL1        0.2111
     13 C          65.1113   91.0490   14.0575 C.ar    1  UNL1        0.0001
     14 C          66.3956   91.6397   13.5561 C.ar    1  UNL1        0.0023
     15 C          67.1975   92.5498   14.4386 C.ar    1  UNL1        0.0296
     16 C          66.7149   92.8692   15.8224 C.ar    1  UNL1        0.1401
     17 F          67.5168   93.7793   16.7049 F       1  UNL1       -0.2042
     18 C          65.4305   92.2785   16.3239 C.ar    1  UNL1        0.0296
     19 C          64.6287   91.3684   15.4414 C.ar    1  UNL1        0.0023
     20 C          61.0524   86.9460    9.3826 C.ar    1  UNL1        0.0086
     21 C          59.6535   87.4656    9.2302 C.ar    1  UNL1        0.0190
     22 C          58.8021   87.0028    8.0853 C.ar    1  UNL1        0.0986
     23 N          59.3495   86.0204    7.0927 N.ar    1  UNL1       -0.2423
     24 C          60.7483   85.5008    7.2451 C.ar    1  UNL1        0.0986
     25 C          61.5998   85.9636    8.3900 C.ar    1  UNL1        0.0190
@<TRIPOS>BOND
     1     1     2    1
     2     2    20    1
     3    20    21   ar
     4    21    22   ar
     5    22    23   ar
     6    23    24   ar
     7    24    25   ar
     8     2     3    1
     9     3     4    1
    10     4     5    1
    11     5     6    1
    12     6     7   ar
    13     7     8   ar
    14     8    13    1
    15    13    14   ar
    16    14    15   ar
    17    15    16   ar
    18    16    17    1
    19    16    18   ar
    20    18    19   ar
    21     8     9   ar
    22     9    10   ar
    23    10    11   ar
    24    11     2    1
    25    25    20   ar
    26    11     6   ar
    27    19    13   ar
    28     1    12    1
@<TRIPOS>MOLECULE
*****
 25 28 0 0 0
SMALL
GASTEIGER

@<TRIPOS>ATOM
      1 O          65.0365   92.7485   10.7903 O.3     1  UNL1       -0.3786
      2 C          65.7837   93.5274   11.8319 C.3     1  UNL1        0.1254
      3 C          66.5938   94.6208   12.4629 C.3     1  UNL1        0.0357
      4 C          66.9635   94.5382   13.9142 C.3     1  UNL1        0.0078
      5 C          66.5230   93.3622   14.7346 C.3     1  UNL1        0.0262
      6 C          65.7130   92.2688   14.1036 C.ar    1  UNL1       -0.0237
      7 C          65.2725   91.0928   14.9240 C.ar    1  UNL1       -0.0045
      8 C          64.4624   89.9994   14.2930 C.ar    1  UNL1       -0.0003
      9 C          64.0927   90.0819   12.8415 C.ar    1  UNL1       -0.0003
     10 C          64.5332   91.2580   12.0212 C.ar    1  UNL1       -0.0020
     11 C          65.3433   92.3514   12.6522 C.ar    1  UNL1        0.0016
     12 H          65.0677   93.2249    9.9460 H       1  UNL1        0.2111
     13 C          64.0220   88.8233   15.1134 C.ar    1  UNL1        0.0001
     14 C          64.3455   87.4302   14.6613 C.ar    1  UNL1        0.0023
     15 C          63.9051   86.2542   15.4816 C.ar    1  UNL1        0.0296
     16 C          63.1411   86.4713   16.7541 C.ar    1  UNL1        0.1401
     17 F          62.7007   85.2953   17.5745 F       1  UNL1       -0.2042
     18 C          62.8176   87.8645   17.2063 C.ar    1  UNL1        0.0296
     19 C          63.2580   89.0405   16.3859 C.ar    1  UNL1        0.0023
     20 C          65.9646   94.4328   10.6497 C.ar    1  UNL1        0.0086
     21 C          65.2399   95.7449   10.5920 C.ar    1  UNL1        0.0190
     22 C          65.4209   96.6503    9.4098 C.ar    1  UNL1        0.0986
     23 N          66.3265   96.2436    8.2854 N.ar    1  UNL1       -0.2423
     24 C          67.0511   94.9315    8.3431 C.ar    1  UNL1        0.0986
     25 C          66.8702   94.0262    9.5252 C.ar    1  UNL1        0.0190
@<TRIPOS>BOND
     1     1     2    1
     2     2    20    1
     3    20    21   ar
     4    21    22   ar
     5    22    23   ar
     6    23    24   ar
     7    24    25   ar
     8     2     3    1
     9     3     4    1
    10     4     5    1
    11     5     6    1
    12     6     7   ar
    13     7     8   ar
    14     8    13    1
    15    13    14   ar
    16    14    15   ar
    17    15    16   ar
    18    16    17    1
    19    16    18   ar
    20    18    19   ar
    21     8     9   ar
    22     9    10   ar
    23    10    11   ar
    24    11     2    1
    25    25    20   ar
    26    11     6   ar
    27    19    13   ar
    28     1    12    1
@<TRIPOS>MOLECULE
*****
 25 28 0 0 0
SMALL
GASTEIGER

@<TRIPOS>ATOM
      1 O          63.6582   90.3825   12.9887 O.3     1  UNL1       -0.3786
      2 C          63.9410   89.2247   13.8993 C.3     1  UNL1        0.1254
      3 C          64.3602   88.4619   15.1210 C.3     1  UNL1        0.0357
      4 C          64.2884   86.9637   15.1309 C.3     1  UNL1        0.0078
      5 C          63.7974   86.2282   13.9193 C.3     1  UNL1        0.0262
      6 C          63.3782   86.9910   12.6977 C.ar    1  UNL1       -0.0237
      7 C          62.8872   86.2556   11.4860 C.ar    1  UNL1       -0.0045
      8 C          62.4680   87.0184   10.2644 C.ar    1  UNL1       -0.0003
      9 C          62.5398   88.5167   10.2544 C.ar    1  UNL1       -0.0003
     10 C          63.0308   89.2521   11.4661 C.ar    1  UNL1       -0.0020
     11 C          63.4500   88.4893   12.6877 C.ar    1  UNL1        0.0016
     12 H          63.8709   91.2119   13.4446 H       1  UNL1        0.2111
     13 C          61.9770   86.2830    9.0528 C.ar    1  UNL1        0.0001
     14 C          62.9158   85.4106    8.2734 C.ar    1  UNL1        0.0023
     15 C          62.4248   84.6751    7.0618 C.ar    1  UNL1        0.0296
     16 C          60.9950   84.8122    6.6295 C.ar    1  UNL1        0.1401
     17 F          60.5040   84.0767    5.4179 F       1  UNL1       -0.2042
     18 C          60.0561   85.6846    7.4089 C.ar    1  UNL1        0.0296
     19 C          60.5471   86.4200    8.6206 C.ar    1  UNL1        0.0023
     20 C          64.3338   90.3623   14.7947 C.ar    1  UNL1        0.0086
     21 C          65.5058   91.2277   14.4376 C.ar    1  UNL1        0.0190
     22 C          65.8985   92.3653   15.3330 C.ar    1  UNL1        0.0986
     23 N          65.1192   92.6374   16.5854 N.ar    1  UNL1       -0.2423
     24 C          63.9472   91.7720   16.9425 C.ar    1  UNL1        0.0986
     25 C          63.5545   90.6345   16.0471 C.ar    1  UNL1        0.0190
@<TRIPOS>BOND
     1     1     2    1
     2     2    20    1
     3    20    21   ar
     4    21    22   ar
     5    22    23   ar
     6    23    24   ar
     7    24    25   ar
     8     2     3    1
     9     3     4    1
    10     4     5    1
    11     5     6    1
    12     6     7   ar
    13     7     8   ar
    14     8    13    1
    15    13    14   ar
    16    14    15   ar
    17    15    16   ar
    18    16    17    1
    19    16    18   ar
    20    18    19   ar
    21     8     9   ar
    22     9    10   ar
    23    10    11   ar
    24    11     2    1
    25    25    20   ar
    26    11     6   ar
    27    19    13   ar
    28     1    12    1
@<TRIPOS>MOLECULE
*****
 25 28 0 0 0
SMALL
GASTEIGER

@<TRIPOS>ATOM
      1 O          63.7102   83.7465   13.5749 O.3     1  UNL1       -0.3786
      2 C          63.0490   84.2136   12.3122 C.3     1  UNL1        0.1254
      3 C          62.3498   84.1651   10.9860 C.3     1  UNL1        0.0357
      4 C          61.9896   85.4392   10.2810 C.3     1  UNL1        0.0078
      5 C          62.3286   86.7617   10.9022 C.3     1  UNL1        0.0262
      6 C          63.0278   86.8103   12.2284 C.ar    1  UNL1       -0.0237
      7 C          63.3668   88.1328   12.8495 C.ar    1  UNL1       -0.0045
      8 C          64.0660   88.1814   14.1757 C.ar    1  UNL1       -0.0003
      9 C          64.4262   86.9073   14.8807 C.ar    1  UNL1       -0.0003
     10 C          64.0872   85.5847   14.2596 C.ar    1  UNL1       -0.0020
     11 C          63.3880   85.5362   12.9333 C.ar    1  UNL1        0.0016
     12 H          63.7139   82.7768   13.5983 H       1  UNL1        0.2111
     13 C          64.4050   89.5039   14.7969 C.ar    1  UNL1        0.0001
     14 C          65.5437   90.3168   14.2559 C.ar    1  UNL1        0.0023
     15 C          65.8827   91.6393   14.8771 C.ar    1  UNL1        0.0296
     16 C          65.0831   92.1491   16.0392 C.ar    1  UNL1        0.1401
     17 F          65.4221   93.4717   16.6604 F       1  UNL1       -0.2042
     18 C          63.9443   91.3363   16.5803 C.ar    1  UNL1        0.0296
     19 C          63.6053   90.0137   15.9591 C.ar    1  UNL1        0.0023
     20 C          62.9396   82.7288   12.1296 C.ar    1  UNL1        0.0086
     21 C          62.4693   81.8663   13.2631 C.ar    1  UNL1        0.0190
     22 C          62.3600   80.3815   13.0804 C.ar    1  UNL1        0.0986
     23 N          62.7210   79.7592   11.7643 N.ar    1  UNL1       -0.2423
     24 C          63.1913   80.6217   10.6307 C.ar    1  UNL1        0.0986
     25 C          63.3006   82.1065   10.8134 C.ar    1  UNL1        0.0190
@<TRIPOS>BOND
     1     1     2    1
     2     2    20    1
     3    20    21   ar
     4    21    22   ar
     5    22    23   ar
     6    23    24   ar
     7    24    25   ar
     8     2     3    1
     9     3     4    1
    10     4     5    1
    11     5     6    1
    12     6     7   ar
    13     7     8   ar
    14     8    13    1
    15    13    14   ar
    16    14    15   ar
    17    15    16   ar
    18    16    17    1
    19    16    18   ar
    20    18    19   ar
    21     8     9   ar
    22     9    10   ar
    23    10    11   ar
    24    11     2    1
    25    25    20   ar
    26    11     6   ar
    27    19    13   ar
    28     1    12    1
@<TRIPOS>MOLECULE
*****
 25 28 0 0 0
SMALL
GASTEIGER

@<TRIPOS>ATOM
      1 O          64.0377   87.9271   13.9279 O.3     1  UNL1       -0.3786
      2 C          63.5981   87.5964   15.3233 C.3     1  UNL1        0.1254
      3 C          63.2633   87.7729   16.7748 C.3     1  UNL1        0.0357
      4 C          62.7794   86.6038   17.5804 C.3     1  UNL1        0.0078
      5 C          62.6303   85.2582   16.9345 C.3     1  UNL1        0.0262
      6 C          62.9651   85.0817   15.4831 C.ar    1  UNL1       -0.0237
      7 C          62.8161   83.7361   14.8372 C.ar    1  UNL1       -0.0045
      8 C          63.1508   83.5596   13.3858 C.ar    1  UNL1       -0.0003
      9 C          63.6347   84.7288   12.5801 C.ar    1  UNL1       -0.0003
     10 C          63.7838   86.0744   13.2260 C.ar    1  UNL1       -0.0020
     11 C          63.4490   86.2508   14.6775 C.ar    1  UNL1        0.0016
     12 H          64.2720   88.8670   13.8769 H       1  UNL1        0.2111
     13 C          63.0018   82.2140   12.7399 C.ar    1  UNL1        0.0001
     14 C          63.2323   82.0600   11.2658 C.ar    1  UNL1        0.0023
     15 C          63.0833   80.7144   10.6199 C.ar    1  UNL1        0.0296
     16 C          62.7036   79.5228   11.4482 C.ar    1  UNL1        0.1401
     17 F          62.5545   78.1772   10.8023 F       1  UNL1       -0.2042
     18 C          62.4730   79.6768   12.9224 C.ar    1  UNL1        0.0296
     19 C          62.6221   81.0224   13.5683 C.ar    1  UNL1        0.0023
     20 C          63.8998   89.0569   15.4845 C.ar    1  UNL1        0.0086
     21 C          63.2516   89.8395   16.5878 C.ar    1  UNL1        0.0190
     22 C          63.5535   91.3000   16.7489 C.ar    1  UNL1        0.0986
     23 N          64.5035   91.9778   15.8066 N.ar    1  UNL1       -0.2423
     24 C          65.1517   91.1952   14.7032 C.ar    1  UNL1        0.0986
     25 C          64.8499   89.7348   14.5422 C.ar    1  UNL1        0.0190
@<TRIPOS>BOND
     1     1     2    1
     2     2    20    1
     3    20    21   ar
     4    21    22   ar
     5    22    23   ar
     6    23    24   ar
     7    24    25   ar
     8     2     3    1
     9     3     4    1
    10     4     5    1
    11     5     6    1
    12     6     7   ar
    13     7     8   ar
    14     8    13    1
    15    13    14   ar
    16    14    15   ar
    17    15    16   ar
    18    16    17    1
    19    16    18   ar
    20    18    19   ar
    21     8     9   ar
    22     9    10   ar
    23    10    11   ar
    24    11     2    1
    25    25    20   ar
    26    11     6   ar
    27    19    13   ar
    28     1    12    1
@<TRIPOS>MOLECULE
*****
 25 28 0 0 0
SMALL
GASTEIGER

@<TRIPOS>ATOM
      1 O          64.9497   92.1051   12.3844 O.3     1  UNL1       -0.3786
      2 C          65.0018   91.0636   13.4626 C.3     1  UNL1        0.1254
      3 C          65.3701   90.3813   14.7467 C.3     1  UNL1        0.0357
      4 C          64.8101   89.0263   15.0633 C.3     1  UNL1        0.0078
      5 C          63.8818   88.3536   14.0959 C.3     1  UNL1        0.0262
      6 C          63.5136   89.0359   12.8119 C.ar    1  UNL1       -0.0237
      7 C          62.5854   88.3632   11.8445 C.ar    1  UNL1       -0.0045
      8 C          62.2171   89.0454   10.5604 C.ar    1  UNL1       -0.0003
      9 C          62.7772   90.4005   10.2437 C.ar    1  UNL1       -0.0003
     10 C          63.7054   91.0732   11.2111 C.ar    1  UNL1       -0.0020
     11 C          64.0736   90.3909   12.4952 C.ar    1  UNL1        0.0016
     12 H          65.5075   92.8581   12.6350 H       1  UNL1        0.2111
     13 C          61.2889   88.3727    9.5930 C.ar    1  UNL1        0.0001
     14 C          61.3292   86.8824    9.4278 C.ar    1  UNL1        0.0023
     15 C          60.4009   86.2097    8.4604 C.ar    1  UNL1        0.0296
     16 C          59.4324   87.0273    7.6583 C.ar    1  UNL1        0.1401
     17 F          58.5042   86.3546    6.6909 F       1  UNL1       -0.2042
     18 C          59.3922   88.5177    7.8234 C.ar    1  UNL1        0.0296
     19 C          60.3204   89.1904    8.7908 C.ar    1  UNL1        0.0023
     20 C          65.9119   92.0981   14.0555 C.ar    1  UNL1        0.0086
     21 C          66.6541   91.8048   15.3256 C.ar    1  UNL1        0.0190
     22 C          67.5642   92.8394   15.9184 C.ar    1  UNL1        0.0986
     23 N          67.7321   94.1672   15.2411 N.ar    1  UNL1       -0.2423
     24 C          66.9899   94.4605   13.9710 C.ar    1  UNL1        0.0986
     25 C          66.0799   93.4259   13.3782 C.ar    1  UNL1        0.0190
@<TRIPOS>BOND
     1     1     2    1
     2     2    20    1
     3    20    21   ar
     4    21    22   ar
     5    22    23   ar
     6    23    24   ar
     7    24    25   ar
     8     2     3    1
     9     3     4    1
    10     4     5    1
    11     5     6    1
    12     6     7   ar
    13     7     8   ar
    14     8    13    1
    15    13    14   ar
    16    14    15   ar
    17    15    16   ar
    18    16    17    1
    19    16    18   ar
    20    18    19   ar
    21     8     9   ar
    22     9    10   ar
    23    10    11   ar
    24    11     2    1
    25    25    20   ar
    26    11     6   ar
    27    19    13   ar
    28     1    12    1
