@<TRIPOS>MOLECULE
*****
 22 25 0 0 0
SMALL
GASTEIGER

@<TRIPOS>ATOM
      1 O          63.2292   88.0718   12.2570 O.2     1  UNL1       -0.2448
      2 C          62.3894   86.8676   11.9496 C.2     1  UNL1        0.3428
      3 C          61.5222   86.8506   10.7258 C.2     1  UNL1        0.0958
      4 C          60.2225   87.5800   10.5560 C.2     1  UNL1        0.1049
      5 N          59.6995   87.2813    9.1823 N.2     1  UNL1       -0.2475
      6 C          60.6758   86.3672    8.5031 C.2     1  UNL1        0.0660
      7 C          60.6846   85.7429    7.1392 C.3     1  UNL1        0.1022
      8 C          61.8199   84.8524    6.7294 C.2     1  UNL1        0.1236
      9 F          61.8287   84.2281    5.3655 F       1  UNL1       -0.2085
     10 C          62.9464   84.5862    7.6834 C.2     1  UNL1        0.0256
     11 C          62.9376   85.2105    9.0472 C.2     1  UNL1        0.0034
     12 C          61.8023   86.1010    9.4571 C.2     1  UNL1        0.0218
     13 O          62.4169   85.6803   12.8660 O.3     1  UNL1       -0.4454
     14 C          63.4483   84.6083   12.6737 C.3     1  UNL1        0.2087
     15 C          63.0560   83.1639   12.7729 C.3     1  UNL1        0.0445
     16 C          62.4949   82.6254   14.0556 C.3     1  UNL1        0.0210
     17 C          62.1027   81.1810   14.1547 C.3     1  UNL1        0.0722
     18 N          62.2715   80.2750   12.9712 N.3     1  UNL1       -0.2727
     19 C          62.8326   80.8134   11.6885 C.3     1  UNL1        0.0722
     20 C          63.2249   82.2579   11.5894 C.3     1  UNL1        0.0210
     21 C          62.5006   81.0593   12.8690 C.3     1  UNL1        0.0722
     22 C          62.8553   82.3653   12.7793 C.3     1  UNL1        0.0210
@<TRIPOS>BOND
     1     1     2    2
     2     2    13    1
     3    13    14    1
     4    14    15    1
     5    15    16    1
     6    16    17    1
     7    17    18    1
     8    18    19    1
     9    19    20    1
    10    18    21    1
    11    21    22    1
    12     2     3    1
    13     3     4    2
    14     4     5    1
    15     5     6    2
    16     6     7    1
    17     7     8    1
    18     8     9    1
    19     8    10    2
    20    10    11    1
    21    11    12    2
    22    20    15    1
    23    12     3    1
    24    22    15    1
    25    12     6    1
@<TRIPOS>MOLECULE
*****
 22 25 0 0 0
SMALL
GASTEIGER

@<TRIPOS>ATOM
      1 O          63.9416   82.8347   15.3074 O.2     1  UNL1       -0.2448
      2 C          63.7385   83.9306   14.3037 C.2     1  UNL1        0.3428
      3 C          63.8946   83.6450   12.8394 C.2     1  UNL1        0.0958
      4 C          64.6970   82.5287   12.2395 C.2     1  UNL1        0.1049
      5 N          64.5739   82.6194   10.7473 N.2     1  UNL1       -0.2475
      6 C          63.6955   83.7917   10.4250 C.2     1  UNL1        0.0660
      7 C          63.2237   84.3640    9.1212 C.3     1  UNL1        0.1022
      8 C          62.3320   85.5701    9.1104 C.2     1  UNL1        0.1236
      9 F          61.8602   86.1423    7.8066 F       1  UNL1       -0.2085
     10 C          61.9122   86.2040   10.4034 C.2     1  UNL1        0.0256
     11 C          62.3840   85.6318   11.7072 C.2     1  UNL1        0.0034
     12 C          63.2756   84.4256   11.7180 C.2     1  UNL1        0.0218
     13 O          63.3792   85.3123   14.7642 O.3     1  UNL1       -0.4454
     14 C          64.4486   86.3524   14.9209 C.3     1  UNL1        0.2087
     15 C          64.0729   87.7944   15.0922 C.3     1  UNL1        0.0445
     16 C          64.2648   88.7592   13.9597 C.3     1  UNL1        0.0210
     17 C          63.8890   90.2012   14.1311 C.3     1  UNL1        0.0722
     18 N          63.3214   90.6785   15.4349 N.3     1  UNL1       -0.2727
     19 C          63.1295   89.7138   16.5674 C.3     1  UNL1        0.0722
     20 C          63.5053   88.2717   16.3960 C.3     1  UNL1        0.0210
     21 C          63.5125   89.8790   15.3883 C.3     1  UNL1        0.0722
     22 C          63.8523   88.5751   15.2334 C.3     1  UNL1        0.0210
@<TRIPOS>BOND
     1     1     2    2
     2     2    13    1
     3    13    14    1
     4    14    15    1
     5    15    16    1
     6    16    17    1
     7    17    18    1
     8    18    19    1
     9    19    20    1
    10    18    21    1
    11    21    22    1
    12     2     3    1
    13     3     4    2
    14     4     5    1
    15     5     6    2
    16     6     7    1
    17     7     8    1
    18     8     9    1
    19     8    10    2
    20    10    11    1
    21    11    12    2
    22    20    15    1
    23    12     3    1
    24    22    15    1
    25    12     6    1
@<TRIPOS>MOLECULE
*****
 22 25 0 0 0
SMALL
GASTEIGER

@<TRIPOS>ATOM
      1 O          63.8769   87.0235   13.5008 O.2     1  UNL1       -0.2448
      2 C          62.8777   85.9998   13.0499 C.2     1  UNL1        0.3428
      3 C          62.8645   84.6373   13.6773 C.2     1  UNL1        0.0958
      4 C          62.8673   84.3440   15.1483 C.2     1  UNL1        0.1049
      5 N          62.8507   82.8545   15.3239 N.2     1  UNL1       -0.2475
      6 C          62.8378   82.2271   13.9615 C.2     1  UNL1        0.0660
      7 C          62.8193   80.7949   13.5161 C.3     1  UNL1        0.1022
      8 C          62.8094   80.4646   12.0530 C.2     1  UNL1        0.1236
      9 F          62.7909   79.0324   11.6075 F       1  UNL1       -0.2085
     10 C          62.8179   81.5665   11.0352 C.2     1  UNL1        0.0256
     11 C          62.8364   82.9987   11.4806 C.2     1  UNL1        0.0034
     12 C          62.8463   83.3290   12.9438 C.2     1  UNL1        0.0218
     13 O          61.8916   86.3384   11.9714 O.3     1  UNL1       -0.4454
     14 C          62.3691   86.9226   10.6750 C.3     1  UNL1        0.2087
     15 C          61.9105   86.3348    9.3734 C.3     1  UNL1        0.0445
     16 C          62.8570   85.5185    8.5441 C.3     1  UNL1        0.0210
     17 C          62.3982   84.9307    7.2426 C.3     1  UNL1        0.0722
     18 N          60.9929   85.1592    6.7703 N.3     1  UNL1       -0.2727
     19 C          60.0464   85.9754    7.5996 C.3     1  UNL1        0.0722
     20 C          60.5052   86.5633    8.9012 C.3     1  UNL1        0.0210
     21 C          61.1986   85.5015    7.4904 C.3     1  UNL1        0.0722
     22 C          61.6134   86.0330    8.6673 C.3     1  UNL1        0.0210
@<TRIPOS>BOND
     1     1     2    2
     2     2    13    1
     3    13    14    1
     4    14    15    1
     5    15    16    1
     6    16    17    1
     7    17    18    1
     8    18    19    1
     9    19    20    1
    10    18    21    1
    11    21    22    1
    12     2     3    1
    13     3     4    2
    14     4     5    1
    15     5     6    2
    16     6     7    1
    17     7     8    1
    18     8     9    1
    19     8    10    2
    20    10    11    1
    21    11    12    2
    22    20    15    1
    23    12     3    1
    24    22    15    1
    25    12     6    1
@<TRIPOS>MOLECULE
*****
 22 25 0 0 0
SMALL
GASTEIGER

@<TRIPOS>ATOM
      1 O          65.9719   85.4036   14.7568 O.2     1  UNL1       -0.2448
      2 C          64.5301   85.4146   14.3433 C.2     1  UNL1        0.3428
      3 C          63.7828   84.1227   14.1938 C.2     1  UNL1        0.0958
      4 C          62.9715   83.4451   15.2581 C.2     1  UNL1        0.1049
      5 N          62.4029   82.1852   14.6758 N.2     1  UNL1       -0.2475
      6 C          62.8626   82.0840   13.2515 C.2     1  UNL1        0.0660
      7 C          62.6149   81.0563   12.1875 C.3     1  UNL1        0.1022
      8 C          63.2199   81.2260   10.8255 C.2     1  UNL1        0.1236
      9 F          62.9722   80.1982    9.7613 F       1  UNL1       -0.2085
     10 C          64.0728   82.4235   10.5276 C.2     1  UNL1        0.0256
     11 C          64.3206   83.4512   11.5917 C.2     1  UNL1        0.0034
     12 C          63.7155   83.2815   12.9536 C.2     1  UNL1        0.0218
     13 O          63.8356   86.7178   14.0792 O.3     1  UNL1       -0.4454
     14 C          64.2521   87.9533   14.8209 C.3     1  UNL1        0.2087
     15 C          64.3026   89.2733   14.1102 C.3     1  UNL1        0.0445
     16 C          65.2287   90.3500   14.5928 C.3     1  UNL1        0.0210
     17 C          65.2792   91.6699   13.8821 C.3     1  UNL1        0.0722
     18 N          64.4035   91.9133   12.6887 N.3     1  UNL1       -0.2727
     19 C          63.4774   90.8365   12.2061 C.3     1  UNL1        0.0722
     20 C          63.4269   89.5165   12.9169 C.3     1  UNL1        0.0210
     21 C          64.3409   91.1739   13.0456 C.3     1  UNL1        0.0722
     22 C          64.2952   89.9803   13.6882 C.3     1  UNL1        0.0210
@<TRIPOS>BOND
     1     1     2    2
     2     2    13    1
     3    13    14    1
     4    14    15    1
     5    15    16    1
     6    16    17    1
     7    17    18    1
     8    18    19    1
     9    19    20    1
    10    18    21    1
    11    21    22    1
    12     2     3    1
    13     3     4    2
    14     4     5    1
    15     5     6    2
    16     6     7    1
    17     7     8    1
    18     8     9    1
    19     8    10    2
    20    10    11    1
    21    11    12    2
    22    20    15    1
    23    12     3    1
    24    22    15    1
    25    12     6    1
@<TRIPOS>MOLECULE
*****
 22 25 0 0 0
SMALL
GASTEIGER

@<TRIPOS>ATOM
      1 O          60.2602   88.3521   11.7942 O.2     1  UNL1       -0.2448
      2 C          61.6043   88.3509   11.1286 C.2     1  UNL1        0.3428
      3 C          62.4705   89.5743   11.1854 C.2     1  UNL1        0.0958
      4 C          62.5455   90.6506   10.1434 C.2     1  UNL1        0.1049
      5 N          63.5351   91.6775   10.6082 N.2     1  UNL1       -0.2475
      6 C          64.0717   91.2359   11.9375 C.2     1  UNL1        0.0660
      7 C          65.0744   91.8495   12.8692 C.3     1  UNL1        0.1022
      8 C          65.4192   91.1631   14.1576 C.2     1  UNL1        0.1236
      9 F          66.4220   91.7766   15.0893 F       1  UNL1       -0.2085
     10 C          64.7612   89.8632   14.5143 C.2     1  UNL1        0.0256
     11 C          63.7585   89.2496   13.5826 C.2     1  UNL1        0.0034
     12 C          63.4138   89.9360   12.2942 C.2     1  UNL1        0.0218
     13 O          62.0824   87.1263   10.4061 O.3     1  UNL1       -0.4454
     14 C          61.6386   85.7670   10.8593 C.3     1  UNL1        0.2087
     15 C          62.6524   84.6865   11.0934 C.3     1  UNL1        0.0445
     16 C          62.9893   84.2647   12.4929 C.3     1  UNL1        0.0210
     17 C          64.0031   83.1842   12.7269 C.3     1  UNL1        0.0722
     18 N          64.6800   82.5255   11.5616 N.3     1  UNL1       -0.2727
     19 C          64.3431   82.9474   10.1621 C.3     1  UNL1        0.0722
     20 C          63.3292   84.0280    9.9280 C.3     1  UNL1        0.0210
     21 C          64.1311   83.1130   11.3836 C.3     1  UNL1        0.0722
     22 C          63.2145   84.0899   11.1718 C.3     1  UNL1        0.0210
@<TRIPOS>BOND
     1     1     2    2
     2     2    13    1
     3    13    14    1
     4    14    15    1
     5    15    16    1
     6    16    17    1
     7    17    18    1
     8    18    19    1
     9    19    20    1
    10    18    21    1
    11    21    22    1
    12     2     3    1
    13     3     4    2
    14     4     5    1
    15     5     6    2
    16     6     7    1
    17     7     8    1
    18     8     9    1
    19     8    10    2
    20    10    11    1
    21    11    12    2
    22    20    15    1
    23    12     3    1
    24    22    15    1
    25    12     6    1
@<TRIPOS>MOLECULE
*****
 22 25 0 0 0
SMALL
GASTEIGER

@<TRIPOS>ATOM
      1 O          63.9186   91.6407   15.6231 O.2     1  UNL1       -0.2448
      2 C          64.8211   90.7577   14.8134 C.2     1  UNL1        0.3428
      3 C          64.2456   89.6198   14.0235 C.2     1  UNL1        0.0958
      4 C          64.3108   88.1676   14.3937 C.2     1  UNL1        0.1049
      5 N          63.6094   87.3846   13.3237 N.2     1  UNL1       -0.2475
      6 C          63.1108   88.3528   12.2922 C.2     1  UNL1        0.0660
      7 C          62.3495   88.1549   11.0150 C.3     1  UNL1        0.1022
      8 C          61.9814   89.3385   10.1703 C.2     1  UNL1        0.1236
      9 F          61.2201   89.1408    8.8930 F       1  UNL1       -0.2085
     10 C          62.3746   90.7200   10.6028 C.2     1  UNL1        0.0256
     11 C          63.1359   90.9178   11.8800 C.2     1  UNL1        0.0034
     12 C          63.5040   89.7342   12.7247 C.2     1  UNL1        0.0218
     13 O          66.2992   91.0127   14.7935 O.3     1  UNL1       -0.4454
     14 C          66.8307   92.3006   14.2377 C.3     1  UNL1        0.2087
     15 C          66.8513   92.5255   12.7549 C.3     1  UNL1        0.0445
     16 C          67.9326   91.9093   11.9176 C.3     1  UNL1        0.0210
     17 C          67.9531   92.1343   10.4348 C.3     1  UNL1        0.0722
     18 N          66.8923   92.9756    9.7890 N.3     1  UNL1       -0.2727
     19 C          65.8109   93.5918   10.6262 C.3     1  UNL1        0.0722
     20 C          65.7904   93.3668   12.1092 C.3     1  UNL1        0.0210
     21 C          66.8395   92.8806   10.6052 C.3     1  UNL1        0.0722
     22 C          66.8209   92.6772   11.9461 C.3     1  UNL1        0.0210
@<TRIPOS>BOND
     1     1     2    2
     2     2    13    1
     3    13    14    1
     4    14    15    1
     5    15    16    1
     6    16    17    1
     7    17    18    1
     8    18    19    1
     9    19    20    1
    10    18    21    1
    11    21    22    1
    12     2     3    1
    13     3     4    2
    14     4     5    1
    15     5     6    2
    16     6     7    1
    17     7     8    1
    18     8     9    1
    19     8    10    2
    20    10    11    1
    21    11    12    2
    22    20    15    1
    23    12     3    1
    24    22    15    1
    25    12     6    1
@<TRIPOS>MOLECULE
*****
 22 25 0 0 0
SMALL
GASTEIGER

@<TRIPOS>ATOM
      1 O          62.0832   89.6449   13.1122 O.2     1  UNL1       -0.2448
      2 C          62.8773   89.8452   11.8556 C.2     1  UNL1        0.3428
      3 C          63.8194   91.0068   11.7408 C.2     1  UNL1        0.0958
      4 C          64.0654   91.8238   10.5071 C.2     1  UNL1        0.1049
      5 N          65.0788   92.8773   10.8434 N.2     1  UNL1       -0.2475
      6 C          65.4591   92.7114   12.2848 C.2     1  UNL1        0.0660
      7 C          66.4137   93.4636   13.1640 C.3     1  UNL1        0.1022
      8 C          66.5898   93.0598   14.5978 C.2     1  UNL1        0.1236
      9 F          67.5443   93.8121   15.4771 F       1  UNL1       -0.2085
     10 C          65.8113   91.9038   15.1525 C.2     1  UNL1        0.0256
     11 C          64.8568   91.1516   14.2733 C.2     1  UNL1        0.0034
     12 C          64.6807   91.5554   12.8395 C.2     1  UNL1        0.0218
     13 O          62.7294   88.8837   10.7137 O.3     1  UNL1       -0.4454
     14 C          61.8423   87.6824   10.8549 C.3     1  UNL1        0.2087
     15 C          61.2367   87.0502    9.6369 C.3     1  UNL1        0.0445
     16 C          59.8185   87.3587    9.2581 C.3     1  UNL1        0.0210
     17 C          59.2130   86.7264    8.0401 C.3     1  UNL1        0.0722
     18 N          60.0256   85.7855    7.2009 N.3     1  UNL1       -0.2727
     19 C          61.4438   85.4769    7.5796 C.3     1  UNL1        0.0722
     20 C          62.0494   86.1093    8.7977 C.3     1  UNL1        0.0210
     21 C          60.4007   86.1077    7.8593 C.3     1  UNL1        0.0722
     22 C          60.9483   86.6794    8.9606 C.3     1  UNL1        0.0210
@<TRIPOS>BOND
     1     1     2    2
     2     2    13    1
     3    13    14    1
     4    14    15    1
     5    15    16    1
     6    16    17    1
     7    17    18    1
     8    18    19    1
     9    19    20    1
    10    18    21    1
    11    21    22    1
    12     2     3    1
    13     3     4    2
    14     4     5    1
    15     5     6    2
    16     6     7    1
    17     7     8    1
    18     8     9    1
    19     8    10    2
    20    10    11    1
    21    11    12    2
    22    20    15    1
    23    12     3    1
    24    22    15    1
    25    12     6    1
@<TRIPOS>MOLECULE
*****
 22 25 0 0 0
SMALL
GASTEIGER

@<TRIPOS>ATOM
      1 O          60.8105   89.5803   12.4647 O.2     1  UNL1       -0.2448
      2 C          62.2573   89.5200   12.0738 C.2     1  UNL1        0.3428
      3 C          63.2659   90.3609   12.7988 C.2     1  UNL1        0.0958
      4 C          63.5659   90.3075   14.2675 C.2     1  UNL1        0.1049
      5 N          64.6370   91.3165   14.5588 N.2     1  UNL1       -0.2475
      6 C          64.9989   91.9935   13.2701 C.2     1  UNL1        0.0660
      7 C          65.9905   93.0714   12.9466 C.3     1  UNL1        0.1022
      8 C          66.1348   93.5587   11.5354 C.2     1  UNL1        0.1236
      9 F          67.1265   94.6366   11.2118 F       1  UNL1       -0.2085
     10 C          65.2875   92.9681   10.4476 C.2     1  UNL1        0.0256
     11 C          64.2958   91.8902   10.7711 C.2     1  UNL1        0.0034
     12 C          64.1515   91.4029   12.1824 C.2     1  UNL1        0.0218
     13 O          62.6957   88.6187   10.9577 O.3     1  UNL1       -0.4454
     14 C          62.1722   87.2153   10.8774 C.3     1  UNL1        0.2087
     15 C          61.4481   86.7542    9.6473 C.3     1  UNL1        0.0445
     16 C          62.1445   85.8729    8.6532 C.3     1  UNL1        0.0210
     17 C          61.4203   85.4119    7.4231 C.3     1  UNL1        0.0722
     18 N          59.9998   85.8321    7.1871 N.3     1  UNL1       -0.2727
     19 C          59.3035   86.7134    8.1813 C.3     1  UNL1        0.0722
     20 C          60.0276   87.1745    9.4115 C.3     1  UNL1        0.0210
     21 C          60.3555   86.1100    7.8758 C.3     1  UNL1        0.0722
     22 C          61.0102   86.5269    8.9881 C.3     1  UNL1        0.0210
@<TRIPOS>BOND
     1     1     2    2
     2     2    13    1
     3    13    14    1
     4    14    15    1
     5    15    16    1
     6    16    17    1
     7    17    18    1
     8    18    19    1
     9    19    20    1
    10    18    21    1
    11    21    22    1
    12     2     3    1
    13     3     4    2
    14     4     5    1
    15     5     6    2
    16     6     7    1
    17     7     8    1
    18     8     9    1
    19     8    10    2
    20    10    11    1
    21    11    12    2
    22    20    15    1
    23    12     3    1
    24    22    15    1
    25    12     6    1
@<TRIPOS>MOLECULE
*****
 22 25 0 0 0
SMALL
GASTEIGER

@<TRIPOS>ATOM
      1 O          64.8182   82.6726   10.4977 O.2     1  UNL1       -0.2448
      2 C          63.6844   83.4992   11.0276 C.2     1  UNL1        0.3428
      3 C          63.1583   83.2522   12.4104 C.2     1  UNL1        0.0958
      4 C          62.3526   82.0651   12.8482 C.2     1  UNL1        0.1049
      5 N          62.0419   82.2281   14.3066 N.2     1  UNL1       -0.2475
      6 C          62.6557   83.5160   14.7701 C.2     1  UNL1        0.0660
      7 C          62.6754   84.1941   16.1079 C.3     1  UNL1        0.1022
      8 C          63.3850   85.5051   16.2738 C.2     1  UNL1        0.1236
      9 F          63.4048   86.1833   17.6116 F       1  UNL1       -0.2085
     10 C          64.0750   86.1380   15.1018 C.2     1  UNL1        0.0256
     11 C          64.0553   85.4599   13.7641 C.2     1  UNL1        0.0034
     12 C          63.3456   84.1489   13.5982 C.2     1  UNL1        0.0218
     13 O          63.0764   84.5730   10.1746 O.3     1  UNL1       -0.4454
     14 C          61.8586   85.3086   10.6496 C.3     1  UNL1        0.2087
     15 C          61.7182   86.7779   10.3824 C.3     1  UNL1        0.0445
     16 C          60.7960   87.2590    9.3016 C.3     1  UNL1        0.0210
     17 C          60.6557   88.7283    9.0345 C.3     1  UNL1        0.0722
     18 N          61.4376   89.7166    9.8481 N.3     1  UNL1       -0.2727
     19 C          62.3597   89.2356   10.9289 C.3     1  UNL1        0.0722
     20 C          62.5001   87.7662   11.1961 C.3     1  UNL1        0.0210
     21 C          61.5475   88.9214   10.0312 C.3     1  UNL1        0.0722
     22 C          61.6744   87.5928   10.2729 C.3     1  UNL1        0.0210
@<TRIPOS>BOND
     1     1     2    2
     2     2    13    1
     3    13    14    1
     4    14    15    1
     5    15    16    1
     6    16    17    1
     7    17    18    1
     8    18    19    1
     9    19    20    1
    10    18    21    1
    11    21    22    1
    12     2     3    1
    13     3     4    2
    14     4     5    1
    15     5     6    2
    16     6     7    1
    17     7     8    1
    18     8     9    1
    19     8    10    2
    20    10    11    1
    21    11    12    2
    22    20    15    1
    23    12     3    1
    24    22    15    1
    25    12     6    1
