@<TRIPOS>MOLECULE
*****
 36 39 0 0 0
SMALL
GASTEIGER

@<TRIPOS>ATOM
      1 C          63.3817   91.8822    9.8107 C.3     1  UNL1        0.0542
      2 C          63.9381   91.5716   11.1686 C.ar    1  UNL1        0.0861
      3 N          65.1573   92.1913   11.7847 N.ar    1  UNL1       -0.1724
      4 N          65.3456   91.5895   13.1457 N.ar    1  UNL1       -0.2385
      5 C          64.2429   90.5979   13.3708 C.ar    1  UNL1        0.1493
      6 C          63.3729   90.5869   12.1489 C.ar    1  UNL1        0.1009
      7 C          66.4440   91.9211   14.1120 C.3     1  UNL1        0.1116
      8 C          66.1091   92.3484   15.5103 C.3     1  UNL1        0.0565
      9 C          67.2075   92.6800   16.4765 C.3     1  UNL1        0.1442
     10 O          68.6407   92.5843   16.0445 O.3     1  UNL1       -0.3536
     11 C          68.9756   92.1569   14.6462 C.3     1  UNL1        0.1442
     12 C          67.8772   91.8253   13.6800 C.3     1  UNL1        0.0565
     13 C          62.1522   89.7398   11.9433 C.2     1  UNL1        0.2498
     14 O          61.0880   89.6890   12.9992 O.2     1  UNL1       -0.2700
     15 N          61.9956   88.9434   10.6819 N.am    1  UNL1       -0.3024
     16 H          62.6941   88.9767    9.9888 H       1  UNL1        0.1497
     17 C          60.7750   88.0963   10.4762 C.3     1  UNL1        0.0718
     18 C          59.6402   88.1659   11.4547 C.3     1  UNL1        0.0213
     19 C          60.6892   87.1796    9.2920 C.3     1  UNL1        0.0165
     20 C          61.2899   86.0719   10.1059 C.3     1  UNL1        0.0016
     21 C          60.0885   88.2872    8.4781 C.3     1  UNL1        0.0016
     22 C          60.6033   86.2629    8.1078 C.3     1  UNL1        0.0016
     23 N          64.0448   89.7638   14.6016 N.pl3   1  UNL1       -0.1990
     24 H          64.0232   90.1917   15.4880 H       1  UNL1        0.1753
     25 S          63.8795   88.2777   14.4819 S.O2    1  UNL1        0.0747
     26 O          64.2068   88.3590   13.0203 O.2     1  UNL1       -0.1499
     27 O          63.5522   88.1964   15.9435 O.2     1  UNL1       -0.1499
     28 C          63.7142   86.7917   14.3622 C.ar    1  UNL1        0.1252
     29 C          63.9602   85.9115   15.5517 C.ar    1  UNL1        0.0199
     30 C          63.7949   84.4255   15.4320 C.ar    1  UNL1       -0.0029
     31 C          63.3837   83.8196   14.1229 C.ar    1  UNL1       -0.0224
     32 C          63.1377   84.6997   12.9335 C.ar    1  UNL1       -0.0029
     33 C          63.3030   86.1858   13.0531 C.ar    1  UNL1        0.0199
     34 C          63.2184   82.3335   14.0032 C.3     1  UNL1        0.0224
     35 C          62.3626   81.1077   14.1250 C.3     1  UNL1        0.0047
     36 C          63.7880   80.9854   13.6742 C.3     1  UNL1        0.0047
@<TRIPOS>BOND
     1     1     2    1
     2     2     3   ar
     3     3     4   ar
     4     4     7    1
     5     7     8    1
     6     8     9    1
     7     9    10    1
     8    10    11    1
     9    11    12    1
    10     4     5   ar
    11     5    23    1
    12    23    25    1
    13    25    26    2
    14    25    27    2
    15    25    28    1
    16    28    29   ar
    17    29    30   ar
    18    30    31   ar
    19    31    34    1
    20    34    35    1
    21    35    36    1
    22    31    32   ar
    23    32    33   ar
    24     5     6   ar
    25     6    13    1
    26    13    14    2
    27    13    15   am
    28    15    17    1
    29    17    18    1
    30    17    19    1
    31    19    20    1
    32    19    21    1
    33    19    22    1
    34     6     2   ar
    35    12     7    1
    36    33    28   ar
    37    36    34    1
    38    23    24    1
    39    15    16    1
@<TRIPOS>MOLECULE
*****
 36 39 0 0 0
SMALL
GASTEIGER

@<TRIPOS>ATOM
      1 C          62.7030   86.5833   18.0913 C.3     1  UNL1        0.0542
      2 C          62.8744   85.8078   16.8188 C.ar    1  UNL1        0.0861
      3 N          62.4648   84.3825   16.5930 N.ar    1  UNL1       -0.1724
      4 N          62.8227   84.0152   15.1834 N.ar    1  UNL1       -0.2385
      5 C          63.4534   85.2134   14.5380 C.ar    1  UNL1        0.1493
      6 C          63.4854   86.3213   15.5487 C.ar    1  UNL1        0.1009
      7 C          62.5906   82.6834   14.5333 C.3     1  UNL1        0.1116
      8 C          63.7238   81.9723   13.8549 C.3     1  UNL1        0.0565
      9 C          63.4916   80.6406   13.2049 C.3     1  UNL1        0.1442
     10 O          62.1263   80.0200   13.2332 O.3     1  UNL1       -0.3536
     11 C          60.9931   80.7311   13.9115 C.3     1  UNL1        0.1442
     12 C          61.2253   82.0628   14.5616 C.3     1  UNL1        0.0565
     13 C          64.0322   87.7005   15.3281 C.2     1  UNL1        0.2498
     14 O          65.4711   87.8846   14.9464 O.2     1  UNL1       -0.2700
     15 N          63.1403   88.8957   15.4893 N.am    1  UNL1       -0.3024
     16 H          62.1959   88.7748   15.7399 H       1  UNL1        0.1497
     17 C          63.6871   90.2748   15.2688 C.3     1  UNL1        0.0718
     18 C          63.9248   91.1834   16.4384 C.3     1  UNL1        0.0213
     19 C          63.9962   90.7455   13.8784 C.3     1  UNL1        0.0165
     20 C          65.3623   91.1731   14.3269 C.3     1  UNL1        0.0016
     21 C          62.6301   90.3180   13.4299 C.3     1  UNL1        0.0016
     22 C          64.3053   91.2162   12.4881 C.3     1  UNL1        0.0016
     23 N          63.9628   85.2903   13.1292 N.pl3   1  UNL1       -0.1990
     24 H          64.8498   84.9263   12.9059 H       1  UNL1        0.1753
     25 S          63.1204   85.9217   12.0606 S.O2    1  UNL1        0.0747
     26 O          62.7704   84.5620   11.5329 O.2     1  UNL1       -0.1499
     27 O          63.4705   87.2815   12.5883 O.2     1  UNL1       -0.1499
     28 C          62.2782   86.5533   10.9921 C.ar    1  UNL1        0.1252
     29 C          61.5238   85.6907   10.0242 C.ar    1  UNL1        0.0199
     30 C          60.6815   86.3222    8.9556 C.ar    1  UNL1       -0.0029
     31 C          60.5937   87.8163    8.8550 C.ar    1  UNL1       -0.0224
     32 C          61.3481   88.6788    9.8229 C.ar    1  UNL1       -0.0029
     33 C          62.1903   88.0473   10.8915 C.ar    1  UNL1        0.0199
     34 C          59.7514   88.4478    7.7865 C.3     1  UNL1        0.0224
     35 C          58.4765   88.4984    6.9977 C.3     1  UNL1        0.0047
     36 C          59.5674   89.4910    6.7245 C.3     1  UNL1        0.0047
@<TRIPOS>BOND
     1     1     2    1
     2     2     3   ar
     3     3     4   ar
     4     4     7    1
     5     7     8    1
     6     8     9    1
     7     9    10    1
     8    10    11    1
     9    11    12    1
    10     4     5   ar
    11     5    23    1
    12    23    25    1
    13    25    26    2
    14    25    27    2
    15    25    28    1
    16    28    29   ar
    17    29    30   ar
    18    30    31   ar
    19    31    34    1
    20    34    35    1
    21    35    36    1
    22    31    32   ar
    23    32    33   ar
    24     5     6   ar
    25     6    13    1
    26    13    14    2
    27    13    15   am
    28    15    17    1
    29    17    18    1
    30    17    19    1
    31    19    20    1
    32    19    21    1
    33    19    22    1
    34     6     2   ar
    35    12     7    1
    36    33    28   ar
    37    36    34    1
    38    23    24    1
    39    15    16    1
@<TRIPOS>MOLECULE
*****
 36 39 0 0 0
SMALL
GASTEIGER

@<TRIPOS>ATOM
      1 C          60.7365   85.0763    7.6994 C.3     1  UNL1        0.0542
      2 C          60.3861   86.5345    7.7267 C.ar    1  UNL1        0.0861
      3 N          59.8484   87.3338    6.5769 N.ar    1  UNL1       -0.1724
      4 N          59.6419   88.7428    7.0482 N.ar    1  UNL1       -0.2385
      5 C          60.0519   88.8143    8.4893 C.ar    1  UNL1        0.1493
      6 C          60.5118   87.4496    8.9087 C.ar    1  UNL1        0.1009
      7 C          59.1174   89.8805    6.2232 C.3     1  UNL1        0.1116
      8 C          60.0722   90.8208    5.5493 C.3     1  UNL1        0.0565
      9 C          59.5477   91.9584    4.7243 C.3     1  UNL1        0.1442
     10 O          58.0684   92.1558    4.5733 O.3     1  UNL1       -0.3536
     11 C          57.1137   91.2156    5.2472 C.3     1  UNL1        0.1442
     12 C          57.6381   90.0779    6.0722 C.3     1  UNL1        0.0565
     13 C          61.0100   87.0670   10.2708 C.2     1  UNL1        0.2498
     14 O          60.2429   87.4776   11.4927 O.2     1  UNL1       -0.2700
     15 N          62.2753   86.2737   10.4112 N.am    1  UNL1       -0.3024
     16 H          62.7788   86.0042    9.6092 H       1  UNL1        0.1497
     17 C          62.7736   85.8911   11.7732 C.3     1  UNL1        0.0718
     18 C          63.2041   86.9538   12.7403 C.3     1  UNL1        0.0213
     19 C          62.8413   84.4456   12.1682 C.3     1  UNL1        0.0165
     20 C          63.0048   84.0596   10.7279 C.3     1  UNL1        0.0016
     21 C          62.6778   84.8314   13.6085 C.3     1  UNL1        0.0016
     22 C          62.9090   83.0001   12.5632 C.3     1  UNL1        0.0016
     23 N          60.0094   90.0361    9.3585 N.pl3   1  UNL1       -0.1990
     24 H          59.2087   90.6088    9.3639 H       1  UNL1        0.1753
     25 S          61.1871   90.3853   10.2195 S.O2    1  UNL1        0.0747
     26 O          60.2725   90.5779   11.3926 O.2     1  UNL1       -0.1499
     27 O          62.1018   90.1926    9.0464 O.2     1  UNL1       -0.1499
     28 C          62.3648   90.7344   11.0804 C.ar    1  UNL1        0.1252
     29 C          62.4086   90.2832   12.5102 C.ar    1  UNL1        0.0199
     30 C          63.5862   90.6324   13.3711 C.ar    1  UNL1       -0.0029
     31 C          64.7202   91.4327   12.8021 C.ar    1  UNL1       -0.0224
     32 C          64.6764   91.8838   11.3723 C.ar    1  UNL1       -0.0029
     33 C          63.4987   91.5347   10.5114 C.ar    1  UNL1        0.0199
     34 C          65.8979   91.7818   13.6630 C.3     1  UNL1        0.0224
     35 C          66.4538   92.3384   14.9402 C.3     1  UNL1        0.0047
     36 C          67.3818   91.8299   13.8770 C.3     1  UNL1        0.0047
@<TRIPOS>BOND
     1     1     2    1
     2     2     3   ar
     3     3     4   ar
     4     4     7    1
     5     7     8    1
     6     8     9    1
     7     9    10    1
     8    10    11    1
     9    11    12    1
    10     4     5   ar
    11     5    23    1
    12    23    25    1
    13    25    26    2
    14    25    27    2
    15    25    28    1
    16    28    29   ar
    17    29    30   ar
    18    30    31   ar
    19    31    34    1
    20    34    35    1
    21    35    36    1
    22    31    32   ar
    23    32    33   ar
    24     5     6   ar
    25     6    13    1
    26    13    14    2
    27    13    15   am
    28    15    17    1
    29    17    18    1
    30    17    19    1
    31    19    20    1
    32    19    21    1
    33    19    22    1
    34     6     2   ar
    35    12     7    1
    36    33    28   ar
    37    36    34    1
    38    23    24    1
    39    15    16    1
@<TRIPOS>MOLECULE
*****
 36 39 0 0 0
SMALL
GASTEIGER

@<TRIPOS>ATOM
      1 C          63.2657   83.0252   10.8059 C.3     1  UNL1        0.0542
      2 C          62.5610   84.3418   10.6646 C.ar    1  UNL1        0.0861
      3 N          61.8409   84.8298    9.4426 N.ar    1  UNL1       -0.1724
      4 N          61.2874   86.1912    9.7434 N.ar    1  UNL1       -0.2385
      5 C          61.6655   86.5445   11.1513 C.ar    1  UNL1        0.1493
      6 C          62.4525   85.4016   11.7207 C.ar    1  UNL1        0.1009
      7 C          60.4951   87.0486    8.8015 C.3     1  UNL1        0.1116
      8 C          59.5521   86.4140    7.8226 C.3     1  UNL1        0.0565
      9 C          58.7598   87.2715    6.8809 C.3     1  UNL1        0.1442
     10 O          58.9104   88.7634    6.9179 O.3     1  UNL1       -0.3536
     11 C          59.8534   89.3980    7.8968 C.3     1  UNL1        0.1442
     12 C          60.6457   88.5405    8.8386 C.3     1  UNL1        0.0565
     13 C          63.0298   85.3309   13.1033 C.2     1  UNL1        0.2498
     14 O          62.8907   84.0744   13.9108 O.2     1  UNL1       -0.2700
     15 N          63.7463   86.5165   13.6785 N.am    1  UNL1       -0.3024
     16 H          63.8376   87.3411   13.1485 H       1  UNL1        0.1497
     17 C          64.3236   86.4459   15.0611 C.3     1  UNL1        0.0718
     18 C          65.6071   85.7076   15.3012 C.3     1  UNL1        0.0213
     19 C          63.6174   87.1136   16.2037 C.3     1  UNL1        0.0165
     20 C          63.8754   88.4533   15.5803 C.3     1  UNL1        0.0016
     21 C          63.3593   85.7739   16.8271 C.3     1  UNL1        0.0016
     22 C          62.9112   87.7813   17.3462 C.3     1  UNL1        0.0016
     23 N          61.3175   87.8174   11.8646 N.pl3   1  UNL1       -0.1990
     24 H          60.5061   87.8644   12.4201 H       1  UNL1        0.1753
     25 S          62.2060   89.0187   11.7314 S.O2    1  UNL1        0.0747
     26 O          63.1795   88.2095   10.9266 O.2     1  UNL1       -0.1499
     27 O          61.2325   89.8278   12.5361 O.2     1  UNL1       -0.1499
     28 C          63.0944   90.2199   11.5983 C.ar    1  UNL1        0.1252
     29 C          63.8953   90.6944   12.7744 C.ar    1  UNL1        0.0199
     30 C          64.7837   91.8957   12.6413 C.ar    1  UNL1       -0.0029
     31 C          64.8711   92.6225   11.3320 C.ar    1  UNL1       -0.0224
     32 C          64.0701   92.1480   10.1559 C.ar    1  UNL1       -0.0029
     33 C          63.1818   90.9467   10.2890 C.ar    1  UNL1        0.0199
     34 C          65.7595   93.8237   11.1989 C.3     1  UNL1        0.0224
     35 C          66.8572   94.5548   10.4844 C.3     1  UNL1        0.0047
     36 C          66.2004   95.1733   11.6828 C.3     1  UNL1        0.0047
@<TRIPOS>BOND
     1     1     2    1
     2     2     3   ar
     3     3     4   ar
     4     4     7    1
     5     7     8    1
     6     8     9    1
     7     9    10    1
     8    10    11    1
     9    11    12    1
    10     4     5   ar
    11     5    23    1
    12    23    25    1
    13    25    26    2
    14    25    27    2
    15    25    28    1
    16    28    29   ar
    17    29    30   ar
    18    30    31   ar
    19    31    34    1
    20    34    35    1
    21    35    36    1
    22    31    32   ar
    23    32    33   ar
    24     5     6   ar
    25     6    13    1
    26    13    14    2
    27    13    15   am
    28    15    17    1
    29    17    18    1
    30    17    19    1
    31    19    20    1
    32    19    21    1
    33    19    22    1
    34     6     2   ar
    35    12     7    1
    36    33    28   ar
    37    36    34    1
    38    23    24    1
    39    15    16    1
@<TRIPOS>MOLECULE
*****
 36 39 0 0 0
SMALL
GASTEIGER

@<TRIPOS>ATOM
      1 C          63.9090   82.8863   10.0221 C.3     1  UNL1        0.0542
      2 C          63.0816   84.1342   10.1116 C.ar    1  UNL1        0.0861
      3 N          62.3364   84.7809    8.9818 N.ar    1  UNL1       -0.1724
      4 N          61.6483   86.0009    9.5185 N.ar    1  UNL1       -0.2385
      5 C          61.9682   86.1083   10.9801 C.ar    1  UNL1        0.1493
      6 C          62.8540   84.9546   11.3466 C.ar    1  UNL1        0.1009
      7 C          60.7909   86.9475    8.7318 C.3     1  UNL1        0.1116
      8 C          60.9534   88.4284    8.9064 C.3     1  UNL1        0.0565
      9 C          60.0959   89.3748    8.1197 C.3     1  UNL1        0.1442
     10 O          59.0760   88.8404    7.1583 O.3     1  UNL1       -0.3536
     11 C          58.9135   87.3595    6.9837 C.3     1  UNL1        0.1442
     12 C          59.7710   86.4131    7.7705 C.3     1  UNL1        0.0565
     13 C          63.4140   84.6710   12.7090 C.2     1  UNL1        0.2498
     14 O          64.8043   84.1259   12.8499 O.2     1  UNL1       -0.2700
     15 N          62.5836   84.9325   13.9305 N.am    1  UNL1       -0.3024
     16 H          61.6710   85.2902   13.8380 H       1  UNL1        0.1497
     17 C          63.1434   84.6489   15.2928 C.3     1  UNL1        0.0718
     18 C          63.6129   83.2668   15.6381 C.3     1  UNL1        0.0213
     19 C          63.2338   85.7477   16.3101 C.3     1  UNL1        0.0165
     20 C          61.8969   85.3479   16.8607 C.3     1  UNL1        0.0016
     21 C          64.5705   86.1476   15.7595 C.3     1  UNL1        0.0016
     22 C          63.3241   86.8464   17.3272 C.3     1  UNL1        0.0016
     23 N          61.4869   87.1809   11.9116 N.pl3   1  UNL1       -0.1990
     24 H          60.5649   87.1566   12.2558 H       1  UNL1        0.1753
     25 S          62.4105   88.2907   12.3185 S.O2    1  UNL1        0.0747
     26 O          63.4630   87.2836   12.6764 O.2     1  UNL1       -0.1499
     27 O          61.3580   89.2977   11.9606 O.2     1  UNL1       -0.1499
     28 C          63.3339   89.4004   12.7254 C.ar    1  UNL1        0.1252
     29 C          63.4833   90.6103   11.8515 C.ar    1  UNL1        0.0199
     30 C          64.4068   91.7201   12.2584 C.ar    1  UNL1       -0.0029
     31 C          65.1809   91.6200   13.5393 C.ar    1  UNL1       -0.0224
     32 C          65.0315   90.4101   14.4133 C.ar    1  UNL1       -0.0029
     33 C          64.1081   89.3003   14.0063 C.ar    1  UNL1        0.0199
     34 C          66.1044   92.7297   13.9462 C.3     1  UNL1        0.0224
     35 C          67.2061   93.2474   14.8227 C.3     1  UNL1        0.0047
     36 C          66.6021   94.1343   13.7745 C.3     1  UNL1        0.0047
@<TRIPOS>BOND
     1     1     2    1
     2     2     3   ar
     3     3     4   ar
     4     4     7    1
     5     7     8    1
     6     8     9    1
     7     9    10    1
     8    10    11    1
     9    11    12    1
    10     4     5   ar
    11     5    23    1
    12    23    25    1
    13    25    26    2
    14    25    27    2
    15    25    28    1
    16    28    29   ar
    17    29    30   ar
    18    30    31   ar
    19    31    34    1
    20    34    35    1
    21    35    36    1
    22    31    32   ar
    23    32    33   ar
    24     5     6   ar
    25     6    13    1
    26    13    14    2
    27    13    15   am
    28    15    17    1
    29    17    18    1
    30    17    19    1
    31    19    20    1
    32    19    21    1
    33    19    22    1
    34     6     2   ar
    35    12     7    1
    36    33    28   ar
    37    36    34    1
    38    23    24    1
    39    15    16    1
@<TRIPOS>MOLECULE
*****
 36 39 0 0 0
SMALL
GASTEIGER

@<TRIPOS>ATOM
      1 C          64.8836   93.0612    1.4862 C.3     1  UNL1        0.0542
      2 C          63.4255   93.0097    1.8344 C.ar    1  UNL1        0.0861
      3 N          62.8161   92.2366    2.9661 N.ar    1  UNL1       -0.1724
      4 N          61.3347   92.4713    2.9432 N.ar    1  UNL1       -0.2385
      5 C          61.0286   93.3895    1.7972 C.ar    1  UNL1        0.1493
      6 C          62.3208   93.7222    1.1119 C.ar    1  UNL1        0.1009
      7 C          60.3349   91.8899    3.8985 C.3     1  UNL1        0.1116
      8 C          60.7538   90.8211    4.8639 C.3     1  UNL1        0.0565
      9 C          59.7540   90.2398    5.8192 C.3     1  UNL1        0.1442
     10 O          58.3355   90.7273    5.8090 O.3     1  UNL1       -0.3536
     11 C          57.9167   91.7961    4.8436 C.3     1  UNL1        0.1442
     12 C          58.9164   92.3774    3.8883 C.3     1  UNL1        0.0565
     13 C          62.4802   94.6114   -0.0856 C.2     1  UNL1        0.2498
     14 O          61.8258   95.9608   -0.1102 O.2     1  UNL1       -0.2700
     15 N          63.2942   94.1511   -1.2585 N.am    1  UNL1       -0.3024
     16 H          63.7237   93.2653   -1.2423 H       1  UNL1        0.1497
     17 C          63.4537   95.0401   -2.4559 C.3     1  UNL1        0.0718
     18 C          64.4911   96.1235   -2.4529 C.3     1  UNL1        0.0213
     19 C          62.5757   94.8457   -3.6566 C.3     1  UNL1        0.0165
     20 C          62.9207   93.3859   -3.6725 C.3     1  UNL1        0.0016
     21 C          62.2307   96.3054   -3.6407 C.3     1  UNL1        0.0016
     22 C          61.6977   94.6512   -4.8571 C.3     1  UNL1        0.0016
     23 N          59.6691   93.8875    1.4053 N.pl3   1  UNL1       -0.1990
     24 H          59.1663   94.4762    2.0134 H       1  UNL1        0.1753
     25 S          59.0756   93.4884    0.0866 S.O2    1  UNL1        0.0747
     26 O          59.5853   92.0910    0.2800 O.2     1  UNL1       -0.1499
     27 O          58.5659   94.8859   -0.1068 O.2     1  UNL1       -0.1499
     28 C          58.4821   93.0895   -1.2319 C.ar    1  UNL1        0.1252
     29 C          57.1466   92.4081   -1.2778 C.ar    1  UNL1        0.0199
     30 C          56.5532   92.0091   -2.5964 C.ar    1  UNL1       -0.0029
     31 C          57.2952   92.2916   -3.8690 C.ar    1  UNL1       -0.0224
     32 C          58.6307   92.9730   -3.8231 C.ar    1  UNL1       -0.0029
     33 C          59.2241   93.3719   -2.5046 C.ar    1  UNL1        0.0199
     34 C          56.7017   91.8926   -5.1876 C.3     1  UNL1        0.0224
     35 C          55.5101   91.5033   -6.0112 C.3     1  UNL1        0.0047
     36 C          56.8655   91.5908   -6.6478 C.3     1  UNL1        0.0047
@<TRIPOS>BOND
     1     1     2    1
     2     2     3   ar
     3     3     4   ar
     4     4     7    1
     5     7     8    1
     6     8     9    1
     7     9    10    1
     8    10    11    1
     9    11    12    1
    10     4     5   ar
    11     5    23    1
    12    23    25    1
    13    25    26    2
    14    25    27    2
    15    25    28    1
    16    28    29   ar
    17    29    30   ar
    18    30    31   ar
    19    31    34    1
    20    34    35    1
    21    35    36    1
    22    31    32   ar
    23    32    33   ar
    24     5     6   ar
    25     6    13    1
    26    13    14    2
    27    13    15   am
    28    15    17    1
    29    17    18    1
    30    17    19    1
    31    19    20    1
    32    19    21    1
    33    19    22    1
    34     6     2   ar
    35    12     7    1
    36    33    28   ar
    37    36    34    1
    38    23    24    1
    39    15    16    1
@<TRIPOS>MOLECULE
*****
 36 39 0 0 0
SMALL
GASTEIGER

@<TRIPOS>ATOM
      1 C          66.0851   93.9604   10.1594 C.3     1  UNL1        0.0542
      2 C          65.1249   92.9407   10.6962 C.ar    1  UNL1        0.0861
      3 N          64.0832   92.2076    9.9040 N.ar    1  UNL1       -0.1724
      4 N          63.3523   91.2888   10.8377 N.ar    1  UNL1       -0.2385
      5 C          63.9422   91.4541   12.2068 C.ar    1  UNL1        0.1493
      6 C          65.0377   92.4749   12.1194 C.ar    1  UNL1        0.1009
      7 C          62.2286   90.3667   10.4671 C.3     1  UNL1        0.1116
      8 C          62.5204   89.0718    9.7685 C.3     1  UNL1        0.0565
      9 C          61.3968   88.1498    9.3980 C.3     1  UNL1        0.1442
     10 O          59.9814   88.5227    9.7261 O.3     1  UNL1       -0.3536
     11 C          59.6896   89.8176   10.4246 C.3     1  UNL1        0.1442
     12 C          60.8132   90.7396   10.7951 C.3     1  UNL1        0.0565
     13 C          65.8955   92.9472   13.2557 C.2     1  UNL1        0.2498
     14 O          66.1371   94.4143   13.4537 O.2     1  UNL1       -0.2700
     15 N          66.5117   91.9523   14.1941 N.am    1  UNL1       -0.3024
     16 H          66.3532   90.9894   14.0642 H       1  UNL1        0.1497
     17 C          67.3695   92.4245   15.3304 C.3     1  UNL1        0.0718
     18 C          66.7802   92.5795   16.7010 C.3     1  UNL1        0.0213
     19 C          68.8168   92.7417   15.0959 C.3     1  UNL1        0.0165
     20 C          68.8672   91.7086   14.0095 C.3     1  UNL1        0.0016
     21 C          68.7664   93.7747   16.1823 C.3     1  UNL1        0.0016
     22 C          70.2640   93.0588   14.8615 C.3     1  UNL1        0.0016
     23 N          63.5121   90.7262   13.4459 N.pl3   1  UNL1       -0.1990
     24 H          63.1892   91.2316   14.2266 H       1  UNL1        0.1753
     25 S          63.5741   89.2283   13.4954 S.O2    1  UNL1        0.0747
     26 O          62.1446   89.1543   13.0470 O.2     1  UNL1       -0.1499
     27 O          65.0036   89.3023   13.9438 O.2     1  UNL1       -0.1499
     28 C          63.6361   87.7304   13.5449 C.ar    1  UNL1        0.1252
     29 C          62.9802   86.9166   12.4690 C.ar    1  UNL1        0.0199
     30 C          63.0422   85.4188   12.5185 C.ar    1  UNL1       -0.0029
     31 C          63.7601   84.7346   13.6439 C.ar    1  UNL1       -0.0224
     32 C          64.4161   85.5483   14.7198 C.ar    1  UNL1       -0.0029
     33 C          64.3541   87.0462   14.6703 C.ar    1  UNL1        0.0199
     34 C          63.8222   83.2367   13.6934 C.3     1  UNL1        0.0224
     35 C          64.3307   81.9386   13.1400 C.3     1  UNL1        0.0047
     36 C          63.4210   81.9404   14.3326 C.3     1  UNL1        0.0047
@<TRIPOS>BOND
     1     1     2    1
     2     2     3   ar
     3     3     4   ar
     4     4     7    1
     5     7     8    1
     6     8     9    1
     7     9    10    1
     8    10    11    1
     9    11    12    1
    10     4     5   ar
    11     5    23    1
    12    23    25    1
    13    25    26    2
    14    25    27    2
    15    25    28    1
    16    28    29   ar
    17    29    30   ar
    18    30    31   ar
    19    31    34    1
    20    34    35    1
    21    35    36    1
    22    31    32   ar
    23    32    33   ar
    24     5     6   ar
    25     6    13    1
    26    13    14    2
    27    13    15   am
    28    15    17    1
    29    17    18    1
    30    17    19    1
    31    19    20    1
    32    19    21    1
    33    19    22    1
    34     6     2   ar
    35    12     7    1
    36    33    28   ar
    37    36    34    1
    38    23    24    1
    39    15    16    1
@<TRIPOS>MOLECULE
*****
 36 39 0 0 0
SMALL
GASTEIGER

@<TRIPOS>ATOM
      1 C          63.0087   84.8078    7.2633 C.3     1  UNL1        0.0542
      2 C          62.9117   84.6574    8.7525 C.ar    1  UNL1        0.0861
      3 N          63.2838   83.4372    9.5416 N.ar    1  UNL1       -0.1724
      4 N          63.0276   83.7264   10.9910 N.ar    1  UNL1       -0.2385
      5 C          62.4972   85.1254   11.0977 C.ar    1  UNL1        0.1493
      6 C          62.4256   85.7008    9.7144 C.ar    1  UNL1        0.1009
      7 C          63.2609   82.7823   12.1331 C.3     1  UNL1        0.1116
      8 C          64.1742   83.1751   13.2563 C.3     1  UNL1        0.0565
      9 C          64.4075   82.2311   14.3983 C.3     1  UNL1        0.1442
     10 O          63.7275   80.8942   14.4171 O.3     1  UNL1       -0.3536
     11 C          62.8142   80.5014   13.2939 C.3     1  UNL1        0.1442
     12 C          62.5810   81.4454   12.1519 C.3     1  UNL1        0.0565
     13 C          61.9511   87.0779    9.3557 C.2     1  UNL1        0.2498
     14 O          62.9457   88.1727    9.1066 O.2     1  UNL1       -0.2700
     15 N          60.4819   87.3601    9.2461 N.am    1  UNL1       -0.3024
     16 H          59.8291   86.6415    9.4096 H       1  UNL1        0.1497
     17 C          60.0074   88.7370    8.8875 C.3     1  UNL1        0.0718
     18 C          60.0420   89.8327    9.9113 C.3     1  UNL1        0.0213
     19 C          59.4982   89.0183    7.5048 C.3     1  UNL1        0.0165
     20 C          60.0817   90.3986    7.5707 C.3     1  UNL1        0.0016
     21 C          58.9146   87.6380    7.4389 C.3     1  UNL1        0.0016
     22 C          58.9890   89.2996    6.1222 C.3     1  UNL1        0.0016
     23 N          62.1069   85.8260   12.3653 N.pl3   1  UNL1       -0.1990
     24 H          61.3757   85.4695   12.9198 H       1  UNL1        0.1753
     25 S          62.8309   87.0699   12.7882 S.O2    1  UNL1        0.0747
     26 O          63.8395   86.2344   13.5193 O.2     1  UNL1       -0.1499
     27 O          61.8223   87.9054   12.0570 O.2     1  UNL1       -0.1499
     28 C          63.5548   88.3138   13.2109 C.ar    1  UNL1        0.1252
     29 C          63.4905   89.5457   12.3576 C.ar    1  UNL1        0.0199
     30 C          64.2144   90.7895   12.7803 C.ar    1  UNL1       -0.0029
     31 C          65.0026   90.8015   14.0565 C.ar    1  UNL1       -0.0224
     32 C          65.0670   89.5696   14.9099 C.ar    1  UNL1       -0.0029
     33 C          64.3431   88.3257   14.4871 C.ar    1  UNL1        0.0199
     34 C          65.7266   92.0453   14.4793 C.3     1  UNL1        0.0224
     35 C          66.3657   92.8749   15.5532 C.3     1  UNL1        0.0047
     36 C          66.3412   93.3703   14.1376 C.3     1  UNL1        0.0047
@<TRIPOS>BOND
     1     1     2    1
     2     2     3   ar
     3     3     4   ar
     4     4     7    1
     5     7     8    1
     6     8     9    1
     7     9    10    1
     8    10    11    1
     9    11    12    1
    10     4     5   ar
    11     5    23    1
    12    23    25    1
    13    25    26    2
    14    25    27    2
    15    25    28    1
    16    28    29   ar
    17    29    30   ar
    18    30    31   ar
    19    31    34    1
    20    34    35    1
    21    35    36    1
    22    31    32   ar
    23    32    33   ar
    24     5     6   ar
    25     6    13    1
    26    13    14    2
    27    13    15   am
    28    15    17    1
    29    17    18    1
    30    17    19    1
    31    19    20    1
    32    19    21    1
    33    19    22    1
    34     6     2   ar
    35    12     7    1
    36    33    28   ar
    37    36    34    1
    38    23    24    1
    39    15    16    1
@<TRIPOS>MOLECULE
*****
 36 39 0 0 0
SMALL
GASTEIGER

@<TRIPOS>ATOM
      1 C          65.0319   92.7121   10.5577 C.3     1  UNL1        0.0542
      2 C          64.0709   91.5689   10.6969 C.ar    1  UNL1        0.0861
      3 N          63.3048   90.9202    9.5823 N.ar    1  UNL1       -0.1724
      4 N          62.4676   89.8240   10.1718 N.ar    1  UNL1       -0.2385
      5 C          62.7162   89.7952   11.6507 C.ar    1  UNL1        0.1493
      6 C          63.7071   90.8735   11.9753 C.ar    1  UNL1        0.1009
      7 C          61.5439   88.9161    9.4151 C.3     1  UNL1        0.1116
      8 C          62.0275   87.5759    8.9461 C.3     1  UNL1        0.0565
      9 C          61.1038   86.6681    8.1894 C.3     1  UNL1        0.1442
     10 O          59.6965   87.1004    7.9018 O.3     1  UNL1       -0.3536
     11 C          59.2130   88.4406    8.3708 C.3     1  UNL1        0.1442
     12 C          60.1366   89.3484    9.1274 C.3     1  UNL1        0.0565
     13 C          64.2405   91.1993   13.3389 C.2     1  UNL1        0.2498
     14 O          63.4092   90.9202   14.5559 O.2     1  UNL1       -0.2700
     15 N          65.6052   91.8043   13.4855 N.am    1  UNL1       -0.3024
     16 H          66.1508   91.9876   12.6868 H       1  UNL1        0.1497
     17 C          66.1387   92.1302   14.8489 C.3     1  UNL1        0.0718
     18 C          65.2013   92.2395   16.0148 C.3     1  UNL1        0.0213
     19 C          67.6098   92.3467   15.0466 C.3     1  UNL1        0.0165
     20 C          67.8612   91.9352   13.6261 C.3     1  UNL1        0.0016
     21 C          67.3585   92.7582   16.4669 C.3     1  UNL1        0.0016
     22 C          69.0809   92.5633   15.2441 C.3     1  UNL1        0.0016
     23 N          62.0848   88.8534   12.6327 N.pl3   1  UNL1       -0.1990
     24 H          61.5655   89.2075   13.3904 H       1  UNL1        0.1753
     25 S          62.2448   87.3719   12.4602 S.O2    1  UNL1        0.0747
     26 O          60.8691   87.2923   11.8677 O.2     1  UNL1       -0.1499
     27 O          63.6205   87.4515   13.0528 O.2     1  UNL1       -0.1499
     28 C          62.4048   85.8904   12.2878 C.ar    1  UNL1        0.1252
     29 C          62.3631   85.2863   10.9154 C.ar    1  UNL1        0.0199
     30 C          62.5231   83.8049   10.7430 C.ar    1  UNL1       -0.0029
     31 C          62.7247   82.9276   11.9428 C.ar    1  UNL1       -0.0224
     32 C          62.7664   83.5317   13.3152 C.ar    1  UNL1       -0.0029
     33 C          62.6064   85.0131   13.4876 C.ar    1  UNL1        0.0199
     34 C          62.8847   81.4462   11.7704 C.3     1  UNL1        0.0224
     35 C          63.2257   80.2682   10.9065 C.3     1  UNL1        0.0047
     36 C          62.8209   80.0581   12.3355 C.3     1  UNL1        0.0047
@<TRIPOS>BOND
     1     1     2    1
     2     2     3   ar
     3     3     4   ar
     4     4     7    1
     5     7     8    1
     6     8     9    1
     7     9    10    1
     8    10    11    1
     9    11    12    1
    10     4     5   ar
    11     5    23    1
    12    23    25    1
    13    25    26    2
    14    25    27    2
    15    25    28    1
    16    28    29   ar
    17    29    30   ar
    18    30    31   ar
    19    31    34    1
    20    34    35    1
    21    35    36    1
    22    31    32   ar
    23    32    33   ar
    24     5     6   ar
    25     6    13    1
    26    13    14    2
    27    13    15   am
    28    15    17    1
    29    17    18    1
    30    17    19    1
    31    19    20    1
    32    19    21    1
    33    19    22    1
    34     6     2   ar
    35    12     7    1
    36    33    28   ar
    37    36    34    1
    38    23    24    1
    39    15    16    1
