@<TRIPOS>MOLECULE
*****
 26 28 0 0 0
SMALL
GASTEIGER

@<TRIPOS>ATOM
      1 C          62.8793   87.6524   12.0618 C.ar    1  UNL1        0.1344
      2 C          62.2115   87.6030   10.7196 C.ar    1  UNL1        0.0345
      3 C          61.7525   86.2899   10.1583 C.ar    1  UNL1        0.0045
      4 C          61.9612   85.0263   10.9392 C.ar    1  UNL1        0.0208
      5 C          62.6289   85.0758   12.2814 C.ar    1  UNL1        0.1000
      6 N          63.0880   86.3888   12.8427 N.ar    1  UNL1       -0.2290
      7 C          62.8376   83.8122   13.0623 C.ar    1  UNL1        0.0983
      8 C          62.5920   83.6327   14.5311 C.ar    1  UNL1        0.1193
      9 N          62.9312   82.2158   14.8881 N.ar    1  UNL1       -0.2223
     10 C          63.3864   81.5196   13.6399 C.ar    1  UNL1        0.1785
     11 N          63.3286   82.5062   12.5115 N.ar    1  UNL1       -0.3097
     12 C          63.6970   82.2345   11.0830 C.3     1  UNL1        0.0871
     13 C          63.1243   81.0431   10.3743 C.3     1  UNL1        0.0245
     14 C          64.6384   83.1544   10.3633 C.3     1  UNL1        0.0245
     15 C          64.1891   88.9969   13.8582 C.2     1  UNL1        0.2567
     16 O          64.5807   87.7151   14.5319 O.2     1  UNL1       -0.2696
     17 N          63.3384   88.9655   12.6232 N.am    1  UNL1       -0.2656
     18 H          63.0814   89.8068   12.1810 H       1  UNL1        0.1566
     19 C          64.1185   90.9738   15.6560 C.ar    1  UNL1        0.2478
     20 N          64.8606   92.2638   15.8436 N.ar    1  UNL1       -0.1313
     21 N          65.8490   92.3972   14.7232 N.ar    1  UNL1       -0.2443
     22 C          66.8013   93.5379   14.5187 C.3     1  UNL1        0.1539
     23 C          65.7177   91.1896   13.8430 C.ar    1  UNL1        0.1045
     24 C          64.6482   90.3099   14.4196 C.ar    1  UNL1        0.1268
     25 C          63.0741   89.0116   17.0009 C.3     1  UNL1        0.2543
     26 O          63.0367   90.4411   16.5481 O.3     1  UNL1       -0.4551
@<TRIPOS>BOND
     1    25    26    1
     2    26    19    1
     3    19    20   ar
     4    20    21   ar
     5    21    22    1
     6    21    23   ar
     7    23    24   ar
     8    24    15    1
     9    15    16    2
    10    15    17   am
    11    17     1    1
    12     1     2   ar
    13     2     3   ar
    14     3     4   ar
    15     4     5   ar
    16     5     7    1
    17     7     8   ar
    18     8     9   ar
    19     9    10   ar
    20    10    11   ar
    21    11    12    1
    22    12    13    1
    23    12    14    1
    24     5     6   ar
    25    24    19   ar
    26     6     1   ar
    27    11     7   ar
    28    17    18    1
@<TRIPOS>MOLECULE
*****
 26 28 0 0 0
SMALL
GASTEIGER

@<TRIPOS>ATOM
      1 C          62.4284   88.3399   11.8194 C.ar    1  UNL1        0.1344
      2 C          61.1076   88.4662   11.1199 C.ar    1  UNL1        0.0345
      3 C          60.4984   87.2724   10.4464 C.ar    1  UNL1        0.0045
      4 C          61.2100   85.9522   10.4725 C.ar    1  UNL1        0.0208
      5 C          62.5309   85.8258   11.1720 C.ar    1  UNL1        0.1000
      6 N          63.1401   87.0197   11.8455 N.ar    1  UNL1       -0.2290
      7 C          63.2425   84.5057   11.1981 C.ar    1  UNL1        0.0983
      8 C          63.6089   83.6777   10.0022 C.ar    1  UNL1        0.1193
      9 N          64.3055   82.4420   10.4896 N.ar    1  UNL1       -0.2223
     10 C          64.3697   82.5062   11.9869 C.ar    1  UNL1        0.1785
     11 N          63.7128   83.7816   12.4247 N.ar    1  UNL1       -0.3097
     12 C          63.5539   84.2506   13.8406 C.3     1  UNL1        0.0871
     13 C          64.7220   84.8465   14.5689 C.3     1  UNL1        0.0245
     14 C          62.2268   84.1237   14.5284 C.3     1  UNL1        0.0245
     15 C          63.9252   89.3490   13.6879 C.2     1  UNL1        0.2567
     16 O          64.2035   87.9704   14.2095 O.2     1  UNL1       -0.2696
     17 N          63.0377   89.5338   12.4929 N.am    1  UNL1       -0.2656
     18 H          62.8550   90.4386   12.1506 H       1  UNL1        0.1566
     19 C          64.1384   91.0995   15.6968 C.ar    1  UNL1        0.2478
     20 N          65.0059   92.2903   15.9784 N.ar    1  UNL1       -0.1313
     21 N          65.9381   92.4698   14.8170 N.ar    1  UNL1       -0.2443
     22 C          66.9790   93.5410   14.6793 C.3     1  UNL1        0.1539
     23 C          65.6467   91.3897   13.8176 C.ar    1  UNL1        0.1045
     24 C          64.5344   90.5429   14.3614 C.ar    1  UNL1        0.1268
     25 C          63.0758   89.1141   16.9927 C.3     1  UNL1        0.2543
     26 O          63.0635   90.5599   16.5932 O.3     1  UNL1       -0.4551
@<TRIPOS>BOND
     1    25    26    1
     2    26    19    1
     3    19    20   ar
     4    20    21   ar
     5    21    22    1
     6    21    23   ar
     7    23    24   ar
     8    24    15    1
     9    15    16    2
    10    15    17   am
    11    17     1    1
    12     1     2   ar
    13     2     3   ar
    14     3     4   ar
    15     4     5   ar
    16     5     7    1
    17     7     8   ar
    18     8     9   ar
    19     9    10   ar
    20    10    11   ar
    21    11    12    1
    22    12    13    1
    23    12    14    1
    24     5     6   ar
    25    24    19   ar
    26     6     1   ar
    27    11     7   ar
    28    17    18    1
@<TRIPOS>MOLECULE
*****
 26 28 0 0 0
SMALL
GASTEIGER

@<TRIPOS>ATOM
      1 C          63.1661   88.4059   12.1415 C.ar    1  UNL1        0.1344
      2 C          62.5748   88.9622   10.8802 C.ar    1  UNL1        0.0345
      3 C          62.7803   90.4058   10.5287 C.ar    1  UNL1        0.0045
      4 C          63.5772   91.2932   11.4384 C.ar    1  UNL1        0.0208
      5 C          64.1686   90.7368   12.6997 C.ar    1  UNL1        0.1000
      6 N          63.9631   89.2932   13.0512 N.ar    1  UNL1       -0.2290
      7 C          64.9655   91.6241   13.6094 C.ar    1  UNL1        0.0983
      8 C          64.9148   91.6233   15.1085 C.ar    1  UNL1        0.1193
      9 N          65.8710   92.6667   15.6054 N.ar    1  UNL1       -0.2223
     10 C          66.5128   93.3125   14.4133 C.ar    1  UNL1        0.1785
     11 N          65.9532   92.6682   13.1797 N.ar    1  UNL1       -0.3097
     12 C          66.3173   93.0082   11.7648 C.3     1  UNL1        0.0871
     13 C          67.3000   92.1561   11.0178 C.3     1  UNL1        0.0245
     14 C          65.6986   94.2004   11.0970 C.3     1  UNL1        0.0245
     15 C          63.6298   86.3825   13.7038 C.2     1  UNL1        0.2567
     16 O          64.5046   87.2464   14.5631 O.2     1  UNL1       -0.2696
     17 N          62.9606   86.9622   12.4930 N.am    1  UNL1       -0.2656
     18 H          62.3865   86.3951   11.9291 H       1  UNL1        0.1566
     19 C          62.6523   84.4190   15.2318 C.ar    1  UNL1        0.2478
     20 N          62.7056   82.9204   15.1957 N.ar    1  UNL1       -0.1313
     21 N          63.5105   82.5139   13.9969 N.ar    1  UNL1       -0.2443
     22 C          63.8174   81.1071   13.5768 C.3     1  UNL1        0.1539
     23 C          63.9547   83.7614   13.2922 C.ar    1  UNL1        0.1045
     24 C          63.4243   84.9388   14.0554 C.ar    1  UNL1        0.1268
     25 C          62.7463   86.0070   17.2859 C.3     1  UNL1        0.2543
     26 O          61.9503   85.2518   16.2631 O.3     1  UNL1       -0.4551
@<TRIPOS>BOND
     1    25    26    1
     2    26    19    1
     3    19    20   ar
     4    20    21   ar
     5    21    22    1
     6    21    23   ar
     7    23    24   ar
     8    24    15    1
     9    15    16    2
    10    15    17   am
    11    17     1    1
    12     1     2   ar
    13     2     3   ar
    14     3     4   ar
    15     4     5   ar
    16     5     7    1
    17     7     8   ar
    18     8     9   ar
    19     9    10   ar
    20    10    11   ar
    21    11    12    1
    22    12    13    1
    23    12    14    1
    24     5     6   ar
    25    24    19   ar
    26     6     1   ar
    27    11     7   ar
    28    17    18    1
@<TRIPOS>MOLECULE
*****
 26 28 0 0 0
SMALL
GASTEIGER

@<TRIPOS>ATOM
      1 C          63.9548   86.9243   14.9832 C.ar    1  UNL1        0.1344
      2 C          63.3296   86.8529   16.3448 C.ar    1  UNL1        0.0345
      3 C          62.6389   85.5973   16.7879 C.ar    1  UNL1        0.0045
      4 C          62.5735   84.4131   15.8695 C.ar    1  UNL1        0.0208
      5 C          63.1987   84.4845   14.5080 C.ar    1  UNL1        0.1000
      6 N          63.8894   85.7401   14.0648 N.ar    1  UNL1       -0.2290
      7 C          63.1333   83.3003   13.5896 C.ar    1  UNL1        0.0983
      8 C          63.3091   81.8649   13.9878 C.ar    1  UNL1        0.1193
      9 N          63.1650   81.0211   12.7561 N.ar    1  UNL1       -0.2223
     10 C          62.9002   81.9350   11.5965 C.ar    1  UNL1        0.1785
     11 N          62.8806   83.3436   12.1117 N.ar    1  UNL1       -0.3097
     12 C          62.6490   84.5788   11.2926 C.3     1  UNL1        0.0871
     13 C          63.2948   84.7178    9.9460 C.3     1  UNL1        0.0245
     14 C          61.7715   85.6750   11.8203 C.3     1  UNL1        0.0245
     15 C          63.9239   89.4935   14.5985 C.2     1  UNL1        0.2567
     16 O          62.5115   89.5517   15.1003 O.2     1  UNL1       -0.2696
     17 N          64.6456   88.1799   14.5400 N.am    1  UNL1       -0.2656
     18 H          65.5725   88.1417   14.2106 H       1  UNL1        0.1566
     19 C          64.3806   91.4753   12.8639 C.ar    1  UNL1        0.2478
     20 N          65.2820   92.6740   12.8361 N.ar    1  UNL1       -0.1313
     21 N          66.0731   92.6886   14.1105 N.ar    1  UNL1       -0.2443
     22 C          67.0969   93.7130   14.5010 C.3     1  UNL1        0.1539
     23 C          65.6607   91.4989   14.9258 C.ar    1  UNL1        0.1045
     24 C          64.6146   90.7492   14.1553 C.ar    1  UNL1        0.1268
     25 C          63.6260   91.5387   10.3786 C.3     1  UNL1        0.2543
     26 O          63.4148   91.0734   11.7889 O.3     1  UNL1       -0.4551
@<TRIPOS>BOND
     1    25    26    1
     2    26    19    1
     3    19    20   ar
     4    20    21   ar
     5    21    22    1
     6    21    23   ar
     7    23    24   ar
     8    24    15    1
     9    15    16    2
    10    15    17   am
    11    17     1    1
    12     1     2   ar
    13     2     3   ar
    14     3     4   ar
    15     4     5   ar
    16     5     7    1
    17     7     8   ar
    18     8     9   ar
    19     9    10   ar
    20    10    11   ar
    21    11    12    1
    22    12    13    1
    23    12    14    1
    24     5     6   ar
    25    24    19   ar
    26     6     1   ar
    27    11     7   ar
    28    17    18    1
@<TRIPOS>MOLECULE
*****
 26 28 0 0 0
SMALL
GASTEIGER

@<TRIPOS>ATOM
      1 C          61.5521   87.5679   11.1873 C.ar    1  UNL1        0.1344
      2 C          60.1479   88.0951   11.2015 C.ar    1  UNL1        0.0345
      3 C          59.8976   89.5557   11.4337 C.ar    1  UNL1        0.0045
      4 C          61.0514   90.4891   11.6517 C.ar    1  UNL1        0.0208
      5 C          62.4556   89.9618   11.6374 C.ar    1  UNL1        0.1000
      6 N          62.7059   88.5012   11.4052 N.ar    1  UNL1       -0.2290
      7 C          63.6095   90.8951   11.8553 C.ar    1  UNL1        0.0983
      8 C          64.1702   91.8543   10.8475 C.ar    1  UNL1        0.1193
      9 N          65.3125   92.5851   11.4887 N.ar    1  UNL1       -0.2223
     10 C          65.4578   92.0776   12.8927 C.ar    1  UNL1        0.1785
     11 N          64.4053   91.0332   13.1193 N.ar    1  UNL1       -0.3097
     12 C          64.1869   90.2621   14.3873 C.3     1  UNL1        0.0871
     13 C          63.7626   90.9766   15.6360 C.3     1  UNL1        0.0245
     14 C          64.3929   88.7764   14.4066 C.3     1  UNL1        0.0245
     15 C          62.5483   85.3023   11.9776 C.2     1  UNL1        0.2567
     16 O          63.0438   85.9579   13.2325 O.2     1  UNL1       -0.2696
     17 N          61.8024   86.1072   10.9551 N.am    1  UNL1       -0.2656
     18 H          61.4772   85.6769   10.1315 H       1  UNL1        0.1566
     19 C          63.4662   83.2416   10.5436 C.ar    1  UNL1        0.2478
     20 N          63.5055   81.7537   10.7297 N.ar    1  UNL1       -0.1313
     21 N          62.8622   81.4341   12.0466 N.ar    1  UNL1       -0.2443
     22 C          62.6867   80.0646   12.6328 C.3     1  UNL1        0.1539
     23 C          62.4254   82.7246   12.6744 C.ar    1  UNL1        0.1045
     24 C          62.7986   83.8416   11.7454 C.ar    1  UNL1        0.1268
     25 C          63.0550   84.6696    8.4125 C.3     1  UNL1        0.2543
     26 O          64.0005   83.9969    9.3630 O.3     1  UNL1       -0.4551
@<TRIPOS>BOND
     1    25    26    1
     2    26    19    1
     3    19    20   ar
     4    20    21   ar
     5    21    22    1
     6    21    23   ar
     7    23    24   ar
     8    24    15    1
     9    15    16    2
    10    15    17   am
    11    17     1    1
    12     1     2   ar
    13     2     3   ar
    14     3     4   ar
    15     4     5   ar
    16     5     7    1
    17     7     8   ar
    18     8     9   ar
    19     9    10   ar
    20    10    11   ar
    21    11    12    1
    22    12    13    1
    23    12    14    1
    24     5     6   ar
    25    24    19   ar
    26     6     1   ar
    27    11     7   ar
    28    17    18    1
@<TRIPOS>MOLECULE
*****
 26 28 0 0 0
SMALL
GASTEIGER

@<TRIPOS>ATOM
      1 C          63.5883   86.4497   15.2494 C.ar    1  UNL1        0.1344
      2 C          63.1635   86.7777   16.6501 C.ar    1  UNL1        0.0345
      3 C          63.0966   88.2076   17.0981 C.ar    1  UNL1        0.0045
      4 C          63.4546   89.3096   16.1454 C.ar    1  UNL1        0.0208
      5 C          63.8794   88.9816   14.7448 C.ar    1  UNL1        0.1000
      6 N          63.9463   87.5517   14.2968 N.ar    1  UNL1       -0.2290
      7 C          64.2374   90.0836   13.7921 C.ar    1  UNL1        0.0983
      8 C          65.3380   91.0858   13.9768 C.ar    1  UNL1        0.1193
      9 N          65.3385   91.9984   12.7863 N.ar    1  UNL1       -0.2223
     10 C          64.2380   91.5602   11.8660 C.ar    1  UNL1        0.1785
     11 N          63.5576   90.3768   12.4876 N.ar    1  UNL1       -0.3097
     12 C          62.4004   89.6195   11.9066 C.3     1  UNL1        0.0871
     13 C          62.6483   88.4479   11.0035 C.3     1  UNL1        0.0245
     14 C          60.9952   90.0340   12.2289 C.3     1  UNL1        0.0245
     15 C          62.9355   84.5889   13.5578 C.2     1  UNL1        0.2567
     16 O          62.1488   85.5881   12.7623 O.2     1  UNL1       -0.2696
     17 N          63.6552   85.0197   14.8013 N.am    1  UNL1       -0.2656
     18 H          64.1716   84.3639   15.3234 H       1  UNL1        0.1566
     19 C          63.6594   82.6569   11.8583 C.ar    1  UNL1        0.2478
     20 N          63.4871   81.1677   11.8096 N.ar    1  UNL1       -0.1313
     21 N          62.7235   80.7492   13.0310 N.ar    1  UNL1       -0.2443
     22 C          62.3288   79.3464   13.3865 C.3     1  UNL1        0.1539
     23 C          62.4240   81.9800   13.8346 C.ar    1  UNL1        0.1045
     24 C          63.0024   83.1589   13.1098 C.ar    1  UNL1        0.1268
     25 C          63.6078   84.0406    9.6599 C.3     1  UNL1        0.2543
     26 O          64.3649   83.4968   10.8351 O.3     1  UNL1       -0.4551
@<TRIPOS>BOND
     1    25    26    1
     2    26    19    1
     3    19    20   ar
     4    20    21   ar
     5    21    22    1
     6    21    23   ar
     7    23    24   ar
     8    24    15    1
     9    15    16    2
    10    15    17   am
    11    17     1    1
    12     1     2   ar
    13     2     3   ar
    14     3     4   ar
    15     4     5   ar
    16     5     7    1
    17     7     8   ar
    18     8     9   ar
    19     9    10   ar
    20    10    11   ar
    21    11    12    1
    22    12    13    1
    23    12    14    1
    24     5     6   ar
    25    24    19   ar
    26     6     1   ar
    27    11     7   ar
    28    17    18    1
@<TRIPOS>MOLECULE
*****
 26 28 0 0 0
SMALL
GASTEIGER

@<TRIPOS>ATOM
      1 C          62.6904   89.2425   11.8589 C.ar    1  UNL1        0.1344
      2 C          61.2323   89.5101   11.6304 C.ar    1  UNL1        0.0345
      3 C          60.2974   88.3731   11.3421 C.ar    1  UNL1        0.0045
      4 C          60.8206   86.9685   11.2825 C.ar    1  UNL1        0.0208
      5 C          62.2787   86.7010   11.5110 C.ar    1  UNL1        0.1000
      6 N          63.2136   87.8380   11.7992 N.ar    1  UNL1       -0.2290
      7 C          62.8019   85.2965   11.4514 C.ar    1  UNL1        0.0983
      8 C          62.9815   84.4745   10.2096 C.ar    1  UNL1        0.1193
      9 N          63.5280   83.1373   10.6138 N.ar    1  UNL1       -0.2223
     10 C          63.6862   83.1329   12.1054 C.ar    1  UNL1        0.1785
     11 N          63.2374   84.4673   12.6230 N.ar    1  UNL1       -0.3097
     12 C          63.2262   84.8971   14.0601 C.3     1  UNL1        0.0871
     13 C          64.2632   85.8564   14.5642 C.3     1  UNL1        0.0245
     14 C          62.1778   84.3675   14.9932 C.3     1  UNL1        0.0245
     15 C          64.4231   90.3911   13.4174 C.2     1  UNL1        0.2567
     16 O          64.2858   89.2656   14.3994 O.2     1  UNL1       -0.2696
     17 N          63.6254   90.3796   12.1471 N.am    1  UNL1       -0.2656
     18 H          63.7155   91.1183   11.5026 H       1  UNL1        0.1566
     19 C          65.6915   92.6538   12.7719 C.ar    1  UNL1        0.2478
     20 N          66.6633   93.5604   13.4674 N.ar    1  UNL1       -0.1313
     21 N          66.9304   92.9951   14.8309 N.ar    1  UNL1       -0.2443
     22 C          67.8438   93.5827   15.8655 C.3     1  UNL1        0.1539
     23 C          66.1237   91.7390   14.9781 C.ar    1  UNL1        0.1045
     24 C          65.3581   91.5281   13.7056 C.ar    1  UNL1        0.1268
     25 C          65.9370   93.6106   10.3690 C.3     1  UNL1        0.2543
     26 O          65.1486   92.8400   11.3862 O.3     1  UNL1       -0.4551
@<TRIPOS>BOND
     1    25    26    1
     2    26    19    1
     3    19    20   ar
     4    20    21   ar
     5    21    22    1
     6    21    23   ar
     7    23    24   ar
     8    24    15    1
     9    15    16    2
    10    15    17   am
    11    17     1    1
    12     1     2   ar
    13     2     3   ar
    14     3     4   ar
    15     4     5   ar
    16     5     7    1
    17     7     8   ar
    18     8     9   ar
    19     9    10   ar
    20    10    11   ar
    21    11    12    1
    22    12    13    1
    23    12    14    1
    24     5     6   ar
    25    24    19   ar
    26     6     1   ar
    27    11     7   ar
    28    17    18    1
@<TRIPOS>MOLECULE
*****
 26 28 0 0 0
SMALL
GASTEIGER

@<TRIPOS>ATOM
      1 C          62.8411   87.7523   11.6923 C.ar    1  UNL1        0.1344
      2 C          61.9132   87.6848   10.5157 C.ar    1  UNL1        0.0345
      3 C          61.2495   86.3883   10.1575 C.ar    1  UNL1        0.0045
      4 C          61.5136   85.1592   10.9759 C.ar    1  UNL1        0.0208
      5 C          62.4415   85.2268   12.1525 C.ar    1  UNL1        0.1000
      6 N          63.1052   86.5233   12.5107 N.ar    1  UNL1       -0.2290
      7 C          62.7056   83.9978   12.9709 C.ar    1  UNL1        0.0983
      8 C          62.4957   83.8614   14.4499 C.ar    1  UNL1        0.1193
      9 N          62.8863   82.4687   14.8471 N.ar    1  UNL1       -0.2223
     10 C          63.3377   81.7443   13.6136 C.ar    1  UNL1        0.1785
     11 N          63.2259   82.6893   12.4541 N.ar    1  UNL1       -0.3097
     12 C          63.5735   82.3801   11.0280 C.3     1  UNL1        0.0871
     13 C          63.0313   81.1434   10.3750 C.3     1  UNL1        0.0245
     14 C          64.4635   83.3077   10.2549 C.3     1  UNL1        0.0245
     15 C          64.0625   89.2504   13.4284 C.2     1  UNL1        0.2567
     16 O          63.9563   88.1554   14.4480 O.2     1  UNL1       -0.2696
     17 N          63.5049   89.0489   12.0506 N.am    1  UNL1       -0.2656
     18 H          63.5746   89.7676   11.3814 H       1  UNL1        0.1566
     19 C          64.8994   91.7291   12.8796 C.ar    1  UNL1        0.2478
     20 N          65.6136   92.8017   13.6473 N.ar    1  UNL1       -0.1313
     21 N          65.8820   92.2826   15.0288 N.ar    1  UNL1       -0.2443
     22 C          66.5767   93.0264   16.1307 C.3     1  UNL1        0.1539
     23 C          65.3335   90.8890   15.1150 C.ar    1  UNL1        0.1045
     24 C          64.7263   90.5470   13.7867 C.ar    1  UNL1        0.1268
     25 C          64.9841   92.8948   10.5593 C.3     1  UNL1        0.2543
     26 O          64.4391   91.8221   11.4551 O.3     1  UNL1       -0.4551
@<TRIPOS>BOND
     1    25    26    1
     2    26    19    1
     3    19    20   ar
     4    20    21   ar
     5    21    22    1
     6    21    23   ar
     7    23    24   ar
     8    24    15    1
     9    15    16    2
    10    15    17   am
    11    17     1    1
    12     1     2   ar
    13     2     3   ar
    14     3     4   ar
    15     4     5   ar
    16     5     7    1
    17     7     8   ar
    18     8     9   ar
    19     9    10   ar
    20    10    11   ar
    21    11    12    1
    22    12    13    1
    23    12    14    1
    24     5     6   ar
    25    24    19   ar
    26     6     1   ar
    27    11     7   ar
    28    17    18    1
@<TRIPOS>MOLECULE
*****
 26 28 0 0 0
SMALL
GASTEIGER

@<TRIPOS>ATOM
      1 C          64.0528   87.3170   14.8825 C.ar    1  UNL1        0.1344
      2 C          63.5173   87.3298   16.2835 C.ar    1  UNL1        0.0345
      3 C          62.8603   86.1046   16.8466 C.ar    1  UNL1        0.0045
      4 C          62.7387   84.8665   16.0085 C.ar    1  UNL1        0.0208
      5 C          63.2741   84.8537   14.6074 C.ar    1  UNL1        0.1000
      6 N          63.9311   86.0789   14.0444 N.ar    1  UNL1       -0.2290
      7 C          63.1525   83.6156   13.7693 C.ar    1  UNL1        0.0983
      8 C          63.3352   82.2057   14.2475 C.ar    1  UNL1        0.1193
      9 N          63.1224   81.2888   13.0796 N.ar    1  UNL1       -0.2223
     10 C          62.8082   82.1320   11.8795 C.ar    1  UNL1        0.1785
     11 N          62.8267   83.5701   12.3058 N.ar    1  UNL1       -0.3097
     12 C          62.5654   84.7546   11.4234 C.3     1  UNL1        0.0871
     13 C          61.6812   85.8670   11.9035 C.3     1  UNL1        0.0245
     14 C          63.1885   84.8268   10.0608 C.3     1  UNL1        0.0245
     15 C          63.8924   89.7665   14.0314 C.2     1  UNL1        0.2567
     16 O          62.4178   89.7655   14.3064 O.2     1  UNL1       -0.2696
     17 N          64.7099   88.5423   14.3194 N.am    1  UNL1       -0.2656
     18 H          65.6777   88.5430   14.1389 H       1  UNL1        0.1566
     19 C          65.4221   91.9501   14.2232 C.ar    1  UNL1        0.2478
     20 N          65.8612   93.0244   13.2729 N.ar    1  UNL1       -0.1313
     21 N          65.2599   92.7300   11.9306 N.ar    1  UNL1       -0.2443
     22 C          65.4380   93.5482   10.6861 C.3     1  UNL1        0.1539
     23 C          64.4491   91.4737   12.0513 C.ar    1  UNL1        0.1045
     24 C          64.5495   90.9918   13.4683 C.ar    1  UNL1        0.1268
     25 C          66.8919   92.7067   16.2276 C.3     1  UNL1        0.2543
     26 O          65.7910   91.8515   15.6738 O.3     1  UNL1       -0.4551
@<TRIPOS>BOND
     1    25    26    1
     2    26    19    1
     3    19    20   ar
     4    20    21   ar
     5    21    22    1
     6    21    23   ar
     7    23    24   ar
     8    24    15    1
     9    15    16    2
    10    15    17   am
    11    17     1    1
    12     1     2   ar
    13     2     3   ar
    14     3     4   ar
    15     4     5   ar
    16     5     7    1
    17     7     8   ar
    18     8     9   ar
    19     9    10   ar
    20    10    11   ar
    21    11    12    1
    22    12    13    1
    23    12    14    1
    24     5     6   ar
    25    24    19   ar
    26     6     1   ar
    27    11     7   ar
    28    17    18    1
