@<TRIPOS>MOLECULE
*****
 32 35 0 0 0
SMALL
GASTEIGER

@<TRIPOS>ATOM
      1 C          63.3059   85.7755   15.1999 C.ar    1  UNL1        0.0154
      2 C          62.9008   85.9112   16.6378 C.ar    1  UNL1        0.0985
      3 N          62.9516   87.2522   17.3079 N.ar    1  UNL1       -0.2423
      4 C          63.4075   88.4575   16.5402 C.ar    1  UNL1        0.0985
      5 C          63.8126   88.3218   15.1023 C.ar    1  UNL1        0.0152
      6 C          63.7618   86.9807   14.4322 C.ar    1  UNL1       -0.0188
      7 C          64.1669   86.8450   12.9943 C.3     1  UNL1        0.0311
      8 C          62.2893   82.0269   14.3846 C.ar    1  UNL1        0.1754
      9 C          62.3401   83.3679   15.0547 C.ar    1  UNL1        0.0403
     10 C          63.2550   84.4344   14.5298 C.ar    1  UNL1        0.0074
     11 C          64.1191   84.1599   13.3348 C.ar    1  UNL1        0.0403
     12 C          64.0682   82.8188   12.6647 C.ar    1  UNL1        0.1754
     13 C          63.1533   81.7523   13.1896 C.ar    1  UNL1        0.2061
     14 C          60.1509   80.5729   14.1331 C.3     1  UNL1        0.2526
     15 O          61.3744   80.9604   14.9095 O.3     1  UNL1       -0.4683
     16 O          64.9322   82.5443   11.4697 O.3     1  UNL1       -0.4683
     17 C          64.5149   83.0327   10.1143 C.3     1  UNL1        0.2526
     18 O          63.1024   80.4113   12.5195 O.3     1  UNL1       -0.4654
     19 C          62.6851   80.3063   11.0826 C.3     1  UNL1        0.2528
     20 C          64.2685   89.5270   14.3346 C.ar    1  UNL1        0.0013
     21 C          63.5017   89.9821   13.1284 C.ar    1  UNL1        0.0013
     22 C          63.9576   91.1874   12.3606 C.ar    1  UNL1        0.0145
     23 C          65.1803   91.9376   12.7991 C.ar    1  UNL1        0.0479
     24 C          65.9471   91.4825   14.0053 C.ar    1  UNL1        0.0145
     25 C          65.4912   90.2772   14.7730 C.ar    1  UNL1        0.0013
     26 N          65.6362   93.1429   12.0313 N.pl3   1  UNL1       -0.3047
     27 C          66.0688   94.3787   12.7631 C.3     1  UNL1        0.1079
     28 C          66.5248   95.5840   11.9954 C.3     1  UNL1        0.0903
     29 N          66.5481   95.5535   10.4959 N.3     1  UNL1       -0.2946
     30 C          66.1155   94.3175    9.7641 C.3     1  UNL1        0.0903
     31 C          65.6596   93.1123   10.5318 C.3     1  UNL1        0.1079
     32 H          67.5096   95.7421   10.2124 H       1  UNL1        0.1233
@<TRIPOS>BOND
     1    14    15    1
     2    15     8    1
     3     8     9   ar
     4     9    10   ar
     5    10     1    1
     6     1     2   ar
     7     2     3   ar
     8     3     4   ar
     9     4     5   ar
    10     5    20    1
    11    20    21   ar
    12    21    22   ar
    13    22    23   ar
    14    23    26    1
    15    26    27    1
    16    27    28    1
    17    28    29    1
    18    29    30    1
    19    30    31    1
    20    23    24   ar
    21    24    25   ar
    22     5     6   ar
    23     6     7    1
    24    10    11   ar
    25    11    12   ar
    26    12    16    1
    27    16    17    1
    28    12    13   ar
    29    13    18    1
    30    18    19    1
    31    13     8   ar
    32     6     1   ar
    33    25    20   ar
    34    31    26    1
    35    29    32    1
@<TRIPOS>MOLECULE
*****
 32 35 0 0 0
SMALL
GASTEIGER

@<TRIPOS>ATOM
      1 C          63.3325   85.9870   15.2066 C.ar    1  UNL1        0.0154
      2 C          62.8901   86.1646   16.6288 C.ar    1  UNL1        0.0985
      3 N          62.9259   87.5243   17.2612 N.ar    1  UNL1       -0.2423
      4 C          63.4043   88.7065   16.4714 C.ar    1  UNL1        0.0985
      5 C          63.8467   88.5289   15.0491 C.ar    1  UNL1        0.0152
      6 C          63.8108   87.1691   14.4167 C.ar    1  UNL1       -0.0188
      7 C          64.2532   86.9915   12.9945 C.3     1  UNL1        0.0311
      8 C          64.1556   82.9577   12.7785 C.ar    1  UNL1        0.1754
      9 C          64.1914   84.3173   13.4109 C.ar    1  UNL1        0.0403
     10 C          63.2966   84.6273   14.5742 C.ar    1  UNL1        0.0074
     11 C          62.3660   83.5775   15.1051 C.ar    1  UNL1        0.0403
     12 C          62.3302   82.2178   14.4728 C.ar    1  UNL1        0.1754
     13 C          63.2250   81.9079   13.3094 C.ar    1  UNL1        0.2061
     14 C          64.5992   82.9575   10.2186 C.3     1  UNL1        0.2526
     15 O          65.0503   82.6477   11.6152 O.3     1  UNL1       -0.4683
     16 O          61.3995   81.1680   15.0037 O.3     1  UNL1       -0.4683
     17 C          60.2980   80.6344   14.1367 C.3     1  UNL1        0.2526
     18 O          63.1891   80.5482   12.6770 O.3     1  UNL1       -0.4654
     19 C          62.6556   80.3823   11.2849 C.3     1  UNL1        0.2528
     20 C          64.3250   89.7109   14.2593 C.ar    1  UNL1        0.0013
     21 C          65.5560   90.4520   14.6897 C.ar    1  UNL1        0.0013
     22 C          66.0344   91.6342   13.8998 C.ar    1  UNL1        0.0145
     23 C          65.2816   92.0752   12.6796 C.ar    1  UNL1        0.0479
     24 C          64.0505   91.3340   12.2493 C.ar    1  UNL1        0.0145
     25 C          63.5722   90.1520   13.0391 C.ar    1  UNL1        0.0013
     26 N          65.7599   93.2573   11.8898 N.pl3   1  UNL1       -0.3047
     27 C          66.0202   94.5639   12.5788 C.3     1  UNL1        0.1079
     28 C          66.4985   95.7461   11.7890 C.3     1  UNL1        0.0903
     29 N          66.7166   95.6215   10.3101 N.3     1  UNL1       -0.2946
     30 C          66.4563   94.3147    9.6211 C.3     1  UNL1        0.0903
     31 C          65.9780   93.1326   10.4110 C.3     1  UNL1        0.1079
     32 H          67.6936   95.8569   10.1357 H       1  UNL1        0.1233
@<TRIPOS>BOND
     1    14    15    1
     2    15     8    1
     3     8     9   ar
     4     9    10   ar
     5    10     1    1
     6     1     2   ar
     7     2     3   ar
     8     3     4   ar
     9     4     5   ar
    10     5    20    1
    11    20    21   ar
    12    21    22   ar
    13    22    23   ar
    14    23    26    1
    15    26    27    1
    16    27    28    1
    17    28    29    1
    18    29    30    1
    19    30    31    1
    20    23    24   ar
    21    24    25   ar
    22     5     6   ar
    23     6     7    1
    24    10    11   ar
    25    11    12   ar
    26    12    16    1
    27    16    17    1
    28    12    13   ar
    29    13    18    1
    30    18    19    1
    31    13     8   ar
    32     6     1   ar
    33    25    20   ar
    34    31    26    1
    35    29    32    1
@<TRIPOS>MOLECULE
*****
 32 35 0 0 0
SMALL
GASTEIGER

@<TRIPOS>ATOM
      1 C          64.2572   90.1764   15.2314 C.ar    1  UNL1        0.0154
      2 C          63.8077   90.5069   16.6238 C.ar    1  UNL1        0.0985
      3 N          63.1858   89.4462   17.4828 N.ar    1  UNL1       -0.2423
      4 C          63.0133   88.0548   16.9495 C.ar    1  UNL1        0.0985
      5 C          63.4627   87.7243   15.5571 C.ar    1  UNL1        0.0152
      6 C          64.0847   88.7851   14.6981 C.ar    1  UNL1       -0.0188
      7 C          64.5342   88.4546   13.3057 C.3     1  UNL1        0.0311
      8 C          66.5538   93.2024   14.0828 C.ar    1  UNL1        0.1754
      9 C          65.9318   92.1416   14.9418 C.ar    1  UNL1        0.0403
     10 C          64.8792   91.2373   14.3724 C.ar    1  UNL1        0.0074
     11 C          64.4485   91.3938   12.9442 C.ar    1  UNL1        0.0403
     12 C          65.0704   92.4546   12.0853 C.ar    1  UNL1        0.1754
     13 C          66.1231   93.3589   12.6546 C.ar    1  UNL1        0.2061
     14 C          68.5036   93.6156   15.7494 C.3     1  UNL1        0.2526
     15 O          67.6065   94.1067   14.6522 O.3     1  UNL1       -0.4683
     16 O          64.6397   92.6111   10.6569 O.3     1  UNL1       -0.4683
     17 C          63.5928   91.7017   10.0853 C.3     1  UNL1        0.2526
     18 O          66.7451   94.4197   11.7956 O.3     1  UNL1       -0.4654
     19 C          66.0264   95.7163   11.5668 C.3     1  UNL1        0.2528
     20 C          63.2902   86.3330   15.0237 C.ar    1  UNL1        0.0013
     21 C          63.5270   86.0527   13.5693 C.ar    1  UNL1        0.0013
     22 C          63.3545   84.6614   13.0358 C.ar    1  UNL1        0.0145
     23 C          62.9453   83.5504   13.9568 C.ar    1  UNL1        0.0479
     24 C          62.7085   83.8308   15.4113 C.ar    1  UNL1        0.0145
     25 C          62.8810   85.2220   15.9447 C.ar    1  UNL1        0.0013
     26 N          62.7728   82.1591   13.4235 N.pl3   1  UNL1       -0.3047
     27 C          62.1257   81.1053   14.2724 C.3     1  UNL1        0.1079
     28 C          61.9532   79.7139   13.7390 C.3     1  UNL1        0.0903
     29 N          62.4278   79.3765   12.3567 N.3     1  UNL1       -0.2946
     30 C          63.0748   80.4304   11.5077 C.3     1  UNL1        0.0903
     31 C          63.2473   81.8216   12.0411 C.3     1  UNL1        0.1079
     32 H          61.6150   79.0403   11.8402 H       1  UNL1        0.1233
@<TRIPOS>BOND
     1    14    15    1
     2    15     8    1
     3     8     9   ar
     4     9    10   ar
     5    10     1    1
     6     1     2   ar
     7     2     3   ar
     8     3     4   ar
     9     4     5   ar
    10     5    20    1
    11    20    21   ar
    12    21    22   ar
    13    22    23   ar
    14    23    26    1
    15    26    27    1
    16    27    28    1
    17    28    29    1
    18    29    30    1
    19    30    31    1
    20    23    24   ar
    21    24    25   ar
    22     5     6   ar
    23     6     7    1
    24    10    11   ar
    25    11    12   ar
    26    12    16    1
    27    16    17    1
    28    12    13   ar
    29    13    18    1
    30    18    19    1
    31    13     8   ar
    32     6     1   ar
    33    25    20   ar
    34    31    26    1
    35    29    32    1
@<TRIPOS>MOLECULE
*****
 32 35 0 0 0
SMALL
GASTEIGER

@<TRIPOS>ATOM
      1 C          64.2558   90.1799   15.2290 C.ar    1  UNL1        0.0154
      2 C          63.8044   90.5101   16.6209 C.ar    1  UNL1        0.0985
      3 N          63.1814   89.4490   17.4788 N.ar    1  UNL1       -0.2423
      4 C          63.0098   88.0578   16.9448 C.ar    1  UNL1        0.0985
      5 C          63.4611   87.7276   15.5530 C.ar    1  UNL1        0.0152
      6 C          64.0841   88.7887   14.6950 C.ar    1  UNL1       -0.0188
      7 C          64.5355   88.4586   13.3032 C.3     1  UNL1        0.0311
      8 C          65.0744   92.4574   12.0837 C.ar    1  UNL1        0.1754
      9 C          64.4515   91.3964   12.9416 C.ar    1  UNL1        0.0403
     10 C          64.8788   91.2410   14.3711 C.ar    1  UNL1        0.0074
     11 C          65.9290   92.1467   14.9426 C.ar    1  UNL1        0.0403
     12 C          66.5520   93.2077   14.0846 C.ar    1  UNL1        0.1754
     13 C          66.1247   93.3631   12.6552 C.ar    1  UNL1        0.2061
     14 C          63.5974   91.7066   10.0825 C.3     1  UNL1        0.2526
     15 O          64.6471   92.6128   10.6543 O.3     1  UNL1       -0.4683
     16 O          67.6023   94.1135   14.6561 O.3     1  UNL1       -0.4683
     17 C          68.5317   93.6071   15.7190 C.3     1  UNL1        0.2526
     18 O          66.7477   94.4242   11.7973 O.3     1  UNL1       -0.4654
     19 C          66.0228   95.7151   11.5562 C.3     1  UNL1        0.2528
     20 C          63.2895   86.3365   15.0190 C.ar    1  UNL1        0.0013
     21 C          63.4934   86.0633   13.5583 C.ar    1  UNL1        0.0013
     22 C          63.3218   84.6721   13.0243 C.ar    1  UNL1        0.0145
     23 C          62.9462   83.5541   13.9510 C.ar    1  UNL1        0.0479
     24 C          62.7422   83.8273   15.4118 C.ar    1  UNL1        0.0145
     25 C          62.9138   85.2184   15.9458 C.ar    1  UNL1        0.0013
     26 N          62.7745   82.1629   13.4171 N.pl3   1  UNL1       -0.3047
     27 C          63.2384   81.8294   12.0302 C.3     1  UNL1        0.1079
     28 C          63.0668   80.4381   11.4962 C.3     1  UNL1        0.0903
     29 N          62.4312   79.3805   12.3491 N.3     1  UNL1       -0.2946
     30 C          61.9673   79.7141   13.7361 C.3     1  UNL1        0.0903
     31 C          62.1390   81.1053   14.2700 C.3     1  UNL1        0.1079
     32 H          63.1124   78.6267   12.4398 H       1  UNL1        0.1233
@<TRIPOS>BOND
     1    14    15    1
     2    15     8    1
     3     8     9   ar
     4     9    10   ar
     5    10     1    1
     6     1     2   ar
     7     2     3   ar
     8     3     4   ar
     9     4     5   ar
    10     5    20    1
    11    20    21   ar
    12    21    22   ar
    13    22    23   ar
    14    23    26    1
    15    26    27    1
    16    27    28    1
    17    28    29    1
    18    29    30    1
    19    30    31    1
    20    23    24   ar
    21    24    25   ar
    22     5     6   ar
    23     6     7    1
    24    10    11   ar
    25    11    12   ar
    26    12    16    1
    27    16    17    1
    28    12    13   ar
    29    13    18    1
    30    18    19    1
    31    13     8   ar
    32     6     1   ar
    33    25    20   ar
    34    31    26    1
    35    29    32    1
@<TRIPOS>MOLECULE
*****
 32 35 0 0 0
SMALL
GASTEIGER

@<TRIPOS>ATOM
      1 C          59.0108   90.1720    6.0375 C.ar    1  UNL1        0.0154
      2 C          57.5498   90.4966    5.9366 C.ar    1  UNL1        0.0985
      3 N          57.0741   91.5114    4.9397 N.ar    1  UNL1       -0.2423
      4 C          58.0594   92.2018    4.0438 C.ar    1  UNL1        0.0985
      5 C          59.5203   91.8772    4.1447 C.ar    1  UNL1        0.0152
      6 C          59.9960   90.8623    5.1416 C.ar    1  UNL1       -0.0188
      7 C          61.4570   90.5377    5.2425 C.3     1  UNL1        0.0311
      8 C          60.0442   86.6946    7.6468 C.ar    1  UNL1        0.1754
      9 C          59.5686   87.7095    6.6500 C.ar    1  UNL1        0.0403
     10 C          59.4865   89.1571    7.0344 C.ar    1  UNL1        0.0074
     11 C          59.8801   89.5898    8.4156 C.ar    1  UNL1        0.0403
     12 C          60.3557   88.5749    9.4124 C.ar    1  UNL1        0.1754
     13 C          60.4378   87.1273    9.0280 C.ar    1  UNL1        0.2061
     14 C          61.3430   84.7264    6.5563 C.3     1  UNL1        0.2526
     15 O          60.1263   85.2470    7.2624 O.3     1  UNL1       -0.4683
     16 O          60.7493   89.0075   10.7938 O.3     1  UNL1       -0.4683
     17 C          59.9561   90.0646   11.5031 C.3     1  UNL1        0.2526
     18 O          60.9135   86.1124   10.0249 O.3     1  UNL1       -0.4654
     19 C          62.3553   85.6990   10.0446 C.3     1  UNL1        0.2528
     20 C          60.5056   92.5675    3.2488 C.ar    1  UNL1        0.0013
     21 C          61.8766   91.9903    3.0562 C.ar    1  UNL1        0.0013
     22 C          62.8620   92.6806    2.1602 C.ar    1  UNL1        0.0145
     23 C          62.4762   93.9481    1.4569 C.ar    1  UNL1        0.0479
     24 C          61.1052   94.5253    1.6496 C.ar    1  UNL1        0.0145
     25 C          60.1199   93.8350    2.5455 C.ar    1  UNL1        0.0013
     26 N          63.4615   94.6384    0.5610 N.pl3   1  UNL1       -0.3047
     27 C          64.4210   95.6398    1.1322 C.3     1  UNL1        0.1079
     28 C          65.4064   96.3302    0.2363 C.3     1  UNL1        0.0903
     29 N          65.4321   96.0190   -1.2308 N.3     1  UNL1       -0.2946
     30 C          64.4725   95.0175   -1.8020 C.3     1  UNL1        0.0903
     31 C          63.4872   94.3272   -0.9061 C.3     1  UNL1        0.1079
     32 H          66.3710   95.6820   -1.4439 H       1  UNL1        0.1233
@<TRIPOS>BOND
     1    14    15    1
     2    15     8    1
     3     8     9   ar
     4     9    10   ar
     5    10     1    1
     6     1     2   ar
     7     2     3   ar
     8     3     4   ar
     9     4     5   ar
    10     5    20    1
    11    20    21   ar
    12    21    22   ar
    13    22    23   ar
    14    23    26    1
    15    26    27    1
    16    27    28    1
    17    28    29    1
    18    29    30    1
    19    30    31    1
    20    23    24   ar
    21    24    25   ar
    22     5     6   ar
    23     6     7    1
    24    10    11   ar
    25    11    12   ar
    26    12    16    1
    27    16    17    1
    28    12    13   ar
    29    13    18    1
    30    18    19    1
    31    13     8   ar
    32     6     1   ar
    33    25    20   ar
    34    31    26    1
    35    29    32    1
@<TRIPOS>MOLECULE
*****
 32 35 0 0 0
SMALL
GASTEIGER

@<TRIPOS>ATOM
      1 C          59.0048   90.1694    6.0432 C.ar    1  UNL1        0.0154
      2 C          57.5444   90.4973    5.9446 C.ar    1  UNL1        0.0985
      3 N          57.0695   91.5141    4.9494 N.ar    1  UNL1       -0.2423
      4 C          58.0550   92.2030    4.0526 C.ar    1  UNL1        0.0985
      5 C          59.5154   91.8752    4.1511 C.ar    1  UNL1        0.0152
      6 C          59.9903   90.8583    5.1464 C.ar    1  UNL1       -0.0188
      7 C          61.4507   90.5304    5.2450 C.3     1  UNL1        0.0311
      8 C          60.3519   88.5666    9.4146 C.ar    1  UNL1        0.1754
      9 C          59.8770   89.5834    8.4193 C.ar    1  UNL1        0.0403
     10 C          59.4797   89.1526    7.0385 C.ar    1  UNL1        0.0074
     11 C          59.5573   87.7051    6.6530 C.ar    1  UNL1        0.0403
     12 C          60.0322   86.6883    7.6483 C.ar    1  UNL1        0.1754
     13 C          60.4295   87.1191    9.0291 C.ar    1  UNL1        0.2061
     14 C          59.9496   90.0435   11.5138 C.3     1  UNL1        0.2526
     15 O          60.7492   88.9974   10.7954 O.3     1  UNL1       -0.4683
     16 O          60.1098   85.2407    7.2629 O.3     1  UNL1       -0.4683
     17 C          61.3428   84.7073    6.5959 C.3     1  UNL1        0.2526
     18 O          60.9043   86.1023   10.0244 O.3     1  UNL1       -0.4654
     19 C          62.3531   85.7160   10.0689 C.3     1  UNL1        0.2528
     20 C          60.5009   92.5640    3.2544 C.ar    1  UNL1        0.0013
     21 C          61.8705   91.9841    3.0595 C.ar    1  UNL1        0.0013
     22 C          62.8561   92.6730    2.1628 C.ar    1  UNL1        0.0145
     23 C          62.4720   93.9418    1.4609 C.ar    1  UNL1        0.0479
     24 C          61.1024   94.5218    1.6558 C.ar    1  UNL1        0.0145
     25 C          60.1169   93.8329    2.5525 C.ar    1  UNL1        0.0013
     26 N          63.4575   94.6307    0.5642 N.pl3   1  UNL1       -0.3047
     27 C          63.4640   94.3392   -0.9072 C.3     1  UNL1        0.1079
     28 C          64.4495   95.0281   -1.8040 C.3     1  UNL1        0.0903
     29 N          65.4285   96.0085   -1.2294 N.3     1  UNL1       -0.2946
     30 C          65.4220   96.3001    0.2420 C.3     1  UNL1        0.0903
     31 C          64.4365   95.6112    1.1388 C.3     1  UNL1        0.1079
     32 H          65.2705   96.8963   -1.7062 H       1  UNL1        0.1233
@<TRIPOS>BOND
     1    14    15    1
     2    15     8    1
     3     8     9   ar
     4     9    10   ar
     5    10     1    1
     6     1     2   ar
     7     2     3   ar
     8     3     4   ar
     9     4     5   ar
    10     5    20    1
    11    20    21   ar
    12    21    22   ar
    13    22    23   ar
    14    23    26    1
    15    26    27    1
    16    27    28    1
    17    28    29    1
    18    29    30    1
    19    30    31    1
    20    23    24   ar
    21    24    25   ar
    22     5     6   ar
    23     6     7    1
    24    10    11   ar
    25    11    12   ar
    26    12    16    1
    27    16    17    1
    28    12    13   ar
    29    13    18    1
    30    18    19    1
    31    13     8   ar
    32     6     1   ar
    33    25    20   ar
    34    31    26    1
    35    29    32    1
@<TRIPOS>MOLECULE
*****
 32 35 0 0 0
SMALL
GASTEIGER

@<TRIPOS>ATOM
      1 C          62.1543   93.7932   -3.1692 C.ar    1  UNL1        0.0154
      2 C          62.5689   93.2269   -1.8435 C.ar    1  UNL1        0.0985
      3 N          61.5589   93.0707   -0.7457 N.ar    1  UNL1       -0.2423
      4 C          60.1340   93.4807   -0.9735 C.ar    1  UNL1        0.0985
      5 C          59.7194   94.0469   -2.2992 C.ar    1  UNL1        0.0152
      6 C          60.7295   94.2032   -3.3970 C.ar    1  UNL1       -0.0188
      7 C          60.3149   94.7694   -4.7227 C.3     1  UNL1        0.0311
      8 C          64.9450   95.3857   -5.4985 C.ar    1  UNL1        0.1754
      9 C          63.9349   95.2294   -4.4007 C.ar    1  UNL1        0.0403
     10 C          63.1644   93.9494   -4.2671 C.ar    1  UNL1        0.0074
     11 C          63.4041   92.8256   -5.2312 C.ar    1  UNL1        0.0403
     12 C          64.4142   92.9818   -6.3290 C.ar    1  UNL1        0.1754
     13 C          65.1847   94.2619   -6.4626 C.ar    1  UNL1        0.2061
     14 C          66.9923   96.8559   -4.8683 C.3     1  UNL1        0.2526
     15 O          65.7154   96.6657   -5.6322 O.3     1  UNL1       -0.4683
     16 O          64.6539   91.8580   -7.2932 O.3     1  UNL1       -0.4683
     17 C          65.8111   90.9263   -7.0864 C.3     1  UNL1        0.2526
     18 O          66.1948   94.4181   -7.5605 O.3     1  UNL1       -0.4654
     19 C          67.6588   94.3037   -7.2545 C.3     1  UNL1        0.2528
     20 C          58.2946   94.4569   -2.5270 C.ar    1  UNL1        0.0013
     21 C          57.3107   93.4716   -3.0847 C.ar    1  UNL1        0.0013
     22 C          55.8859   93.8816   -3.3125 C.ar    1  UNL1        0.0145
     23 C          55.4450   95.2769   -2.9827 C.ar    1  UNL1        0.0479
     24 C          56.4290   96.2623   -2.4251 C.ar    1  UNL1        0.0145
     25 C          57.8538   95.8523   -2.1972 C.ar    1  UNL1        0.0013
     26 N          54.0203   95.6869   -3.2106 N.pl3   1  UNL1       -0.3047
     27 C          53.5649   96.0854   -4.5831 C.3     1  UNL1        0.1079
     28 C          52.1401   96.4954   -4.8110 C.3     1  UNL1        0.0903
     29 N          51.1707   96.5069   -3.6663 N.3     1  UNL1       -0.2946
     30 C          51.6262   96.1084   -2.2938 C.3     1  UNL1        0.0903
     31 C          53.0509   95.6984   -2.0659 C.3     1  UNL1        0.1079
     32 H          50.4097   95.8765   -3.9187 H       1  UNL1        0.1233
@<TRIPOS>BOND
     1    14    15    1
     2    15     8    1
     3     8     9   ar
     4     9    10   ar
     5    10     1    1
     6     1     2   ar
     7     2     3   ar
     8     3     4   ar
     9     4     5   ar
    10     5    20    1
    11    20    21   ar
    12    21    22   ar
    13    22    23   ar
    14    23    26    1
    15    26    27    1
    16    27    28    1
    17    28    29    1
    18    29    30    1
    19    30    31    1
    20    23    24   ar
    21    24    25   ar
    22     5     6   ar
    23     6     7    1
    24    10    11   ar
    25    11    12   ar
    26    12    16    1
    27    16    17    1
    28    12    13   ar
    29    13    18    1
    30    18    19    1
    31    13     8   ar
    32     6     1   ar
    33    25    20   ar
    34    31    26    1
    35    29    32    1
@<TRIPOS>MOLECULE
*****
 32 35 0 0 0
SMALL
GASTEIGER

@<TRIPOS>ATOM
      1 C          72.6833   79.1503   12.5294 C.ar    1  UNL1        0.0154
      2 C          72.8856   80.0788   13.6900 C.ar    1  UNL1        0.0985
      3 N          72.8959   79.5390   15.0894 N.ar    1  UNL1       -0.2423
      4 C          72.7040   78.0706   15.3283 C.ar    1  UNL1        0.0985
      5 C          72.5018   77.1421   14.1677 C.ar    1  UNL1        0.0152
      6 C          72.4914   77.6820   12.7682 C.ar    1  UNL1       -0.0188
      7 C          72.2892   76.7534   11.6077 C.3     1  UNL1        0.0311
      8 C          73.1467   79.3783    8.5945 C.ar    1  UNL1        0.1754
      9 C          73.1570   78.8385    9.9939 C.ar    1  UNL1        0.0403
     10 C          72.6730   79.6902   11.1299 C.ar    1  UNL1        0.0074
     11 C          72.1788   81.0817   10.8665 C.ar    1  UNL1        0.0403
     12 C          72.1685   81.6215    9.4670 C.ar    1  UNL1        0.1754
     13 C          72.6525   80.7698    8.3310 C.ar    1  UNL1        0.2061
     14 C          72.7525   78.3005    6.2637 C.3     1  UNL1        0.2526
     15 O          73.6306   78.5267    7.4585 O.3     1  UNL1       -0.4683
     16 O          71.6743   83.0131    9.2035 O.3     1  UNL1       -0.4683
     17 C          72.6194   84.0608    8.6946 C.3     1  UNL1        0.2526
     18 O          72.6422   81.3097    6.9316 O.3     1  UNL1       -0.4654
     19 C          71.3479   81.4272    6.1825 C.3     1  UNL1        0.2528
     20 C          72.3099   75.6737   14.4066 C.ar    1  UNL1        0.0013
     21 C          73.3657   74.6995   13.9753 C.ar    1  UNL1        0.0013
     22 C          73.1738   73.2311   14.2142 C.ar    1  UNL1        0.0145
     23 C          71.9261   72.7370   14.8843 C.ar    1  UNL1        0.0479
     24 C          70.8702   73.7113   15.3155 C.ar    1  UNL1        0.0145
     25 C          71.0621   75.1796   15.0767 C.ar    1  UNL1        0.0013
     26 N          71.7342   71.2686   15.1231 N.pl3   1  UNL1       -0.3047
     27 C          71.9611   70.6953   16.4905 C.3     1  UNL1        0.1079
     28 C          71.7692   69.2269   16.7294 C.3     1  UNL1        0.0903
     29 N          71.3504   68.3319   15.6009 N.3     1  UNL1       -0.2946
     30 C          71.1234   68.9053   14.2334 C.3     1  UNL1        0.0903
     31 C          71.3153   70.3736   13.9946 C.3     1  UNL1        0.1079
     32 H          70.4754   67.8907   15.8841 H       1  UNL1        0.1233
@<TRIPOS>BOND
     1    14    15    1
     2    15     8    1
     3     8     9   ar
     4     9    10   ar
     5    10     1    1
     6     1     2   ar
     7     2     3   ar
     8     3     4   ar
     9     4     5   ar
    10     5    20    1
    11    20    21   ar
    12    21    22   ar
    13    22    23   ar
    14    23    26    1
    15    26    27    1
    16    27    28    1
    17    28    29    1
    18    29    30    1
    19    30    31    1
    20    23    24   ar
    21    24    25   ar
    22     5     6   ar
    23     6     7    1
    24    10    11   ar
    25    11    12   ar
    26    12    16    1
    27    16    17    1
    28    12    13   ar
    29    13    18    1
    30    18    19    1
    31    13     8   ar
    32     6     1   ar
    33    25    20   ar
    34    31    26    1
    35    29    32    1
@<TRIPOS>MOLECULE
*****
 32 35 0 0 0
SMALL
GASTEIGER

@<TRIPOS>ATOM
      1 C          59.1030   91.6806    4.2125 C.ar    1  UNL1        0.0154
      2 C          57.6222   91.8976    4.3143 C.ar    1  UNL1        0.0985
      3 N          56.8256   91.1602    5.3494 N.ar    1  UNL1       -0.2423
      4 C          57.5096   90.2057    6.2828 C.ar    1  UNL1        0.0985
      5 C          58.9904   89.9887    6.1809 C.ar    1  UNL1        0.0152
      6 C          59.7870   90.7261    5.1457 C.ar    1  UNL1       -0.0188
      7 C          61.2677   90.5091    5.0439 C.3     1  UNL1        0.0311
      8 C          62.1953   93.1263    2.1882 C.ar    1  UNL1        0.1754
      9 C          61.3986   92.3889    3.2233 C.ar    1  UNL1        0.0403
     10 C          59.8996   92.4180    3.1773 C.ar    1  UNL1        0.0074
     11 C          59.1973   93.1846    2.0961 C.ar    1  UNL1        0.0403
     12 C          59.9939   93.9220    1.0609 C.ar    1  UNL1        0.1754
     13 C          61.4929   93.8929    1.1070 C.ar    1  UNL1        0.2061
     14 C          64.4706   94.3803    2.2080 C.3     1  UNL1        0.2526
     15 O          63.6943   93.0971    2.2343 O.3     1  UNL1       -0.4683
     16 O          59.2916   94.6886   -0.0203 O.3     1  UNL1       -0.4683
     17 C          58.0667   94.1170   -0.6705 C.3     1  UNL1        0.2526
     18 O          62.2896   94.6303    0.0718 O.3     1  UNL1       -0.4654
     19 C          62.7859   93.9096   -1.1465 C.3     1  UNL1        0.2528
     20 C          59.6744   89.0342    7.1142 C.ar    1  UNL1        0.0013
     21 C          60.3549   89.5494    8.3477 C.ar    1  UNL1        0.0013
     22 C          61.0390   88.5950    9.2810 C.ar    1  UNL1        0.0145
     23 C          61.0426   87.1253    8.9808 C.ar    1  UNL1        0.0479
     24 C          60.3620   86.6101    7.7473 C.ar    1  UNL1        0.0145
     25 C          59.6780   87.5646    6.8140 C.ar    1  UNL1        0.0013
     26 N          61.7266   86.1709    9.9141 N.pl3   1  UNL1       -0.3047
     27 C          61.4335   86.2198   11.3843 C.3     1  UNL1        0.1079
     28 C          62.1176   85.2653   12.3177 C.3     1  UNL1        0.0903
     29 N          63.0948   84.2619   11.7807 N.3     1  UNL1       -0.2946
     30 C          63.3878   84.2130   10.3104 C.3     1  UNL1        0.0903
     31 C          62.7038   85.1675    9.3771 C.3     1  UNL1        0.1079
     32 H          62.7440   83.3404   12.0419 H       1  UNL1        0.1233
@<TRIPOS>BOND
     1    14    15    1
     2    15     8    1
     3     8     9   ar
     4     9    10   ar
     5    10     1    1
     6     1     2   ar
     7     2     3   ar
     8     3     4   ar
     9     4     5   ar
    10     5    20    1
    11    20    21   ar
    12    21    22   ar
    13    22    23   ar
    14    23    26    1
    15    26    27    1
    16    27    28    1
    17    28    29    1
    18    29    30    1
    19    30    31    1
    20    23    24   ar
    21    24    25   ar
    22     5     6   ar
    23     6     7    1
    24    10    11   ar
    25    11    12   ar
    26    12    16    1
    27    16    17    1
    28    12    13   ar
    29    13    18    1
    30    18    19    1
    31    13     8   ar
    32     6     1   ar
    33    25    20   ar
    34    31    26    1
    35    29    32    1
