@<TRIPOS>MOLECULE
*****
 8 8 0 0 0
SMALL
GASTEIGER

@<TRIPOS>ATOM
      1 C          67.2577   95.2922    8.3988 C.3     1  UNL1        0.1325
      2 N          67.0103   94.5712    9.6907 N.ar    1  UNL1       -0.3035
      3 C          66.1576   95.0599   10.8239 C.ar    1  UNL1        0.0984
      4 C          66.1925   94.0256   11.9098 C.ar    1  UNL1        0.1197
      5 N          67.0667   92.8977   11.4477 N.ar    1  UNL1       -0.2197
      6 C          67.5721   93.2349   10.0762 C.ar    1  UNL1        0.1677
      7 S          68.4800   92.3850    9.2375 S.3     1  UNL1       -0.1051
      8 H          68.7841   91.2440    9.9123 H       1  UNL1        0.1100
@<TRIPOS>BOND
     1     1     2    1
     2     2     3   ar
     3     3     4   ar
     4     4     5   ar
     5     5     6   ar
     6     6     7    1
     7     6     2   ar
     8     7     8    1
@<TRIPOS>MOLECULE
*****
 8 8 0 0 0
SMALL
GASTEIGER

@<TRIPOS>ATOM
      1 C          65.4451   92.6158   11.3609 C.3     1  UNL1        0.1325
      2 N          66.6592   93.0295   10.5832 N.ar    1  UNL1       -0.3035
      3 C          67.7278   92.1140   10.0637 C.ar    1  UNL1        0.0984
      4 C          68.7469   92.9501    9.3478 C.ar    1  UNL1        0.1197
      5 N          68.3081   94.3824    9.4248 N.ar    1  UNL1       -0.2197
      6 C          67.0178   94.4315   10.1883 C.ar    1  UNL1        0.1677
      7 S          66.2254   95.6659   10.5019 S.3     1  UNL1       -0.1051
      8 H          66.8570   96.7536    9.9847 H       1  UNL1        0.1100
@<TRIPOS>BOND
     1     1     2    1
     2     2     3   ar
     3     3     4   ar
     4     4     5   ar
     5     5     6   ar
     6     6     7    1
     7     6     2   ar
     8     7     8    1
@<TRIPOS>MOLECULE
*****
 8 8 0 0 0
SMALL
GASTEIGER

@<TRIPOS>ATOM
      1 C          65.7811   95.6271   10.4077 C.3     1  UNL1        0.1325
      2 N          66.7267   94.4808   10.2030 N.ar    1  UNL1       -0.3035
      3 C          67.7890   94.3919    9.1477 C.ar    1  UNL1        0.0984
      4 C          68.4949   93.0784    9.3102 C.ar    1  UNL1        0.1197
      5 N          67.8689   92.3555   10.4658 N.ar    1  UNL1       -0.2197
      6 C          66.7761   93.2223   11.0176 C.ar    1  UNL1        0.1677
      7 S          65.8885   92.8890   12.1800 S.3     1  UNL1       -0.1051
      8 H          66.2237   91.6654   12.6701 H       1  UNL1        0.1100
@<TRIPOS>BOND
     1     1     2    1
     2     2     3   ar
     3     3     4   ar
     4     4     5   ar
     5     5     6   ar
     6     6     7    1
     7     6     2   ar
     8     7     8    1
@<TRIPOS>MOLECULE
*****
 8 8 0 0 0
SMALL
GASTEIGER

@<TRIPOS>ATOM
      1 C          64.3890   82.9148   11.2297 C.3     1  UNL1        0.1325
      2 N          64.1262   82.9748   12.7053 N.ar    1  UNL1       -0.3035
      3 C          64.5943   84.0495   13.6412 C.ar    1  UNL1        0.0984
      4 C          64.1066   83.7096   15.0184 C.ar    1  UNL1        0.1197
      5 N          63.3370   82.4249   14.9336 N.ar    1  UNL1       -0.2197
      6 C          63.3491   81.9708   13.5040 C.ar    1  UNL1        0.1677
      7 S          62.6984   80.7304   12.9674 S.3     1  UNL1       -0.1051
      8 H          62.0847   80.0650   13.9825 H       1  UNL1        0.1100
@<TRIPOS>BOND
     1     1     2    1
     2     2     3   ar
     3     3     4   ar
     4     4     5   ar
     5     5     6   ar
     6     6     7    1
     7     6     2   ar
     8     7     8    1
@<TRIPOS>MOLECULE
*****
 8 8 0 0 0
SMALL
GASTEIGER

@<TRIPOS>ATOM
      1 C          64.2935   82.6780   11.0255 C.3     1  UNL1        0.1325
      2 N          63.6615   82.1839   12.2929 N.ar    1  UNL1       -0.3035
      3 C          62.8083   80.9582   12.4331 C.ar    1  UNL1        0.0984
      4 C          62.3913   80.8454   13.8695 C.ar    1  UNL1        0.1197
      5 N          62.9868   82.0014   14.6172 N.ar    1  UNL1       -0.2197
      6 C          63.7719   82.8286   13.6428 C.ar    1  UNL1        0.1677
      7 S          64.5336   84.0807   13.9622 S.3     1  UNL1       -0.1051
      8 H          64.4073   84.3627   15.2867 H       1  UNL1        0.1100
@<TRIPOS>BOND
     1     1     2    1
     2     2     3   ar
     3     3     4   ar
     4     4     5   ar
     5     5     6   ar
     6     6     7    1
     7     6     2   ar
     8     7     8    1
@<TRIPOS>MOLECULE
*****
 8 8 0 0 0
SMALL
GASTEIGER

@<TRIPOS>ATOM
      1 C          62.7767   84.3170   12.0680 C.3     1  UNL1        0.1325
      2 N          62.7428   82.9665   12.7200 N.ar    1  UNL1       -0.3035
      3 C          62.6896   81.6460   12.0106 C.ar    1  UNL1        0.0984
      4 C          62.6702   80.5628   13.0482 C.ar    1  UNL1        0.1197
      5 N          62.7114   81.2140   14.3988 N.ar    1  UNL1       -0.2197
      6 C          62.7563   82.6995   14.1960 C.ar    1  UNL1        0.1677
      7 S          62.8059   83.7361   15.2791 S.3     1  UNL1       -0.1051
      8 H          62.8043   83.1235   16.4933 H       1  UNL1        0.1100
@<TRIPOS>BOND
     1     1     2    1
     2     2     3   ar
     3     3     4   ar
     4     4     5   ar
     5     5     6   ar
     6     6     7    1
     7     6     2   ar
     8     7     8    1
@<TRIPOS>MOLECULE
*****
 8 8 0 0 0
SMALL
GASTEIGER

@<TRIPOS>ATOM
      1 C          62.9006   84.3252   13.5550 C.3     1  UNL1        0.1325
      2 N          62.7053   82.8548   13.3322 N.ar    1  UNL1       -0.3035
      3 C          61.9553   81.9185   14.2327 C.ar    1  UNL1        0.0984
      4 C          62.0122   80.5475   13.6268 C.ar    1  UNL1        0.1197
      5 N          62.7974   80.6365   12.3518 N.ar    1  UNL1       -0.2197
      6 C          63.2257   82.0624   12.1697 C.ar    1  UNL1        0.1677
      7 S          64.0327   82.6014   11.0259 S.3     1  UNL1       -0.1051
      8 H          64.3253   81.5923   10.1623 H       1  UNL1        0.1100
@<TRIPOS>BOND
     1     1     2    1
     2     2     3   ar
     3     3     4   ar
     4     4     5   ar
     5     5     6   ar
     6     6     7    1
     7     6     2   ar
     8     7     8    1
@<TRIPOS>MOLECULE
*****
 8 8 0 0 0
SMALL
GASTEIGER

@<TRIPOS>ATOM
      1 C          61.4927   81.2650   14.1122 C.3     1  UNL1        0.1325
      2 N          62.4536   82.4168   14.1092 N.ar    1  UNL1       -0.3035
      3 C          62.6902   83.3705   15.2425 C.ar    1  UNL1        0.0984
      4 C          63.7294   84.3603   14.8061 C.ar    1  UNL1        0.1197
      5 N          64.1350   84.0183   13.4031 N.ar    1  UNL1       -0.2197
      6 C          63.3465   82.8172   12.9724 C.ar    1  UNL1        0.1677
      7 S          63.4354   82.1360   11.6389 S.3     1  UNL1       -0.1051
      8 H          64.3505   82.7763   10.8629 H       1  UNL1        0.1100
@<TRIPOS>BOND
     1     1     2    1
     2     2     3   ar
     3     3     4   ar
     4     4     5   ar
     5     5     6   ar
     6     6     7    1
     7     6     2   ar
     8     7     8    1
@<TRIPOS>MOLECULE
*****
 8 8 0 0 0
SMALL
GASTEIGER

@<TRIPOS>ATOM
      1 C          61.5691   81.3126   14.0861 C.3     1  UNL1        0.1325
      2 N          62.6028   82.0087   13.2514 N.ar    1  UNL1       -0.3035
      3 C          62.8960   81.7392   11.8052 C.ar    1  UNL1        0.0984
      4 C          63.9992   82.6606   11.3763 C.ar    1  UNL1        0.1197
      5 N          64.3879   83.4996   12.5573 N.ar    1  UNL1       -0.2197
      6 C          63.5249   83.0968   13.7162 C.ar    1  UNL1        0.1677
      7 S          63.5751   83.6797   15.0974 S.3     1  UNL1       -0.1051
      8 H          64.5333   84.6434   15.1481 H       1  UNL1        0.1100
@<TRIPOS>BOND
     1     1     2    1
     2     2     3   ar
     3     3     4   ar
     4     4     5   ar
     5     5     6   ar
     6     6     7    1
     7     6     2   ar
     8     7     8    1
