@<TRIPOS>MOLECULE
*****
 41 44 0 0 0
SMALL
GASTEIGER

@<TRIPOS>ATOM
      1 C          65.3650   90.4891   14.1668 C.ar    1  UNL1        0.0053
      2 C          65.1982   89.2044   14.9228 C.ar    1  UNL1        0.0033
      3 C          64.3302   88.1145   14.3671 C.ar    1  UNL1        0.0382
      4 C          63.6292   88.3094   13.0554 C.ar    1  UNL1        0.1529
      5 C          63.7960   89.5942   12.2995 C.ar    1  UNL1        0.0882
      6 C          64.6639   90.6840   12.8552 C.ar    1  UNL1        0.0181
      7 N          63.0949   89.7890   10.9878 N.am    1  UNL1       -0.2512
      8 C          62.2270   88.6992   10.4321 C.2     1  UNL1        0.2698
      9 O          61.5259   88.8941    9.1204 O.2     1  UNL1       -0.2704
     10 C          62.0601   87.4144   11.1880 C.3     1  UNL1        0.2219
     11 C          61.5935   86.0303   11.5297 C.3     1  UNL1        0.0580
     12 O          62.7612   87.2195   12.4997 O.3     1  UNL1       -0.4685
     13 C          67.5317   91.9184   14.0530 C.ar    1  UNL1        0.0645
     14 N          68.3997   93.0082   14.6086 N.ar    1  UNL1       -0.2183
     15 C          67.9689   93.7589   15.8339 C.ar    1  UNL1        0.2145
     16 N          68.8369   94.8487   16.3895 N.pl3   1  UNL1       -0.3274
     17 N          66.6703   93.4196   16.5034 N.ar    1  UNL1       -0.1995
     18 C          65.8023   92.3296   15.9477 C.ar    1  UNL1        0.1293
     19 N          64.5036   91.9903   16.6172 N.pl3   1  UNL1       -0.3425
     20 C          66.2330   91.5791   14.7225 C.ar    1  UNL1        0.0449
     21 H          69.6893   95.0714   15.9501 H       1  UNL1        0.1452
     22 H          68.5542   95.3414   17.1936 H       1  UNL1        0.1452
     23 H          64.2209   92.4829   17.4214 H       1  UNL1        0.1437
     24 H          63.9339   91.2750   16.2525 H       1  UNL1        0.1437
     25 C          68.4251   91.9168   11.6133 C.3     1  UNL1        0.0067
     26 C          67.9624   91.1677   12.8278 C.3     1  UNL1        0.0460
     27 C          61.1970   87.1286    9.9951 C.ar    1  UNL1        0.0516
     28 C          61.7338   86.3075    8.8603 C.ar    1  UNL1        0.0314
     29 C          60.8706   86.0217    7.6673 C.ar    1  UNL1        0.1401
     30 F          61.4075   85.2006    6.5326 F       1  UNL1       -0.2042
     31 C          59.4706   86.5571    7.6090 C.ar    1  UNL1        0.0319
     32 C          58.9339   87.3782    8.7436 C.ar    1  UNL1        0.0317
     33 C          59.7970   87.6640    9.9367 C.ar    1  UNL1        0.1400
     34 F          59.2602   88.4851   11.0714 F       1  UNL1       -0.2044
     35 C          63.2618   91.0738   10.2318 C.3     1  UNL1        0.1196
     36 C          64.0124   92.2158   10.8502 C.3     1  UNL1        0.1113
     37 N          64.9701   93.0200   10.0217 N.am    1  UNL1       -0.3026
     38 C          65.8908   94.0028   10.6822 C.2     1  UNL1        0.2230
     39 C          66.8485   94.8070    9.8538 C.3     1  UNL1        0.0946
     40 O          65.8540   94.1814   12.1711 O.2     1  UNL1       -0.2751
     41 H          64.9942   92.9028    9.0445 H       1  UNL1        0.1495
@<TRIPOS>BOND
     1    25    26    1
     2    26    13    1
     3    13    14   ar
     4    14    15   ar
     5    15    16    1
     6    15    17   ar
     7    17    18   ar
     8    18    19    1
     9    18    20   ar
    10    20     1    1
    11     1     2   ar
    12     2     3   ar
    13     3     4   ar
    14     4     5   ar
    15     5     6   ar
    16     5     7    1
    17     7    35    1
    18    35    36    1
    19    36    37    1
    20    37    38   am
    21    38    39    1
    22    38    40    2
    23     7     8   am
    24     8     9    2
    25     8    10    1
    26    10    11    1
    27    10    27    1
    28    27    28   ar
    29    28    29   ar
    30    29    30    1
    31    29    31   ar
    32    31    32   ar
    33    32    33   ar
    34    33    34    1
    35    10    12    1
    36    20    13   ar
    37     6     1   ar
    38    33    27   ar
    39    12     4    1
    40    16    21    1
    41    16    22    1
    42    19    23    1
    43    19    24    1
    44    37    41    1
@<TRIPOS>MOLECULE
*****
 41 44 0 0 0
SMALL
GASTEIGER

@<TRIPOS>ATOM
      1 C          64.1736   89.2116   13.2139 C.ar    1  UNL1        0.0053
      2 C          64.5108   89.0338   14.6646 C.ar    1  UNL1        0.0033
      3 C          64.3227   87.6978   15.3200 C.ar    1  UNL1        0.0382
      4 C          63.7974   86.5395   14.5247 C.ar    1  UNL1        0.1529
      5 C          63.4601   86.7174   13.0739 C.ar    1  UNL1        0.0882
      6 C          63.6482   88.0534   12.4186 C.ar    1  UNL1        0.0181
      7 N          62.9348   85.5591   12.2786 N.am    1  UNL1       -0.2512
      8 C          62.7467   84.2231   12.9340 C.2     1  UNL1        0.2698
      9 O          62.2214   83.0649   12.1387 O.2     1  UNL1       -0.2704
     10 C          63.0840   84.0452   14.3848 C.3     1  UNL1        0.2219
     11 C          63.2600   83.3856   15.7204 C.3     1  UNL1        0.0580
     12 O          63.6093   85.2034   15.1801 O.3     1  UNL1       -0.4685
     13 C          65.2007   91.5981   13.2239 C.ar    1  UNL1        0.0645
     14 N          65.3888   92.9341   12.5685 N.ar    1  UNL1       -0.2183
     15 C          64.7379   93.2199   11.2476 C.ar    1  UNL1        0.2145
     16 N          64.9260   94.5559   10.5922 N.pl3   1  UNL1       -0.3274
     17 N          63.8989   92.1695   10.5822 N.ar    1  UNL1       -0.1995
     18 C          63.7108   90.8334   11.2376 C.ar    1  UNL1        0.1293
     19 N          62.8718   89.7831   10.5721 N.pl3   1  UNL1       -0.3425
     20 C          64.3617   90.5477   12.5584 C.ar    1  UNL1        0.0449
     21 H          65.4766   95.2453   11.0290 H       1  UNL1        0.1452
     22 H          64.4988   94.7434    9.7253 H       1  UNL1        0.1452
     23 H          62.4446   89.9706    9.7052 H       1  UNL1        0.1437
     24 H          62.7483   88.9062   11.0023 H       1  UNL1        0.1437
     25 C          67.3032   91.6298   14.7499 C.3     1  UNL1        0.0067
     26 C          65.8516   91.3123   14.5448 C.3     1  UNL1        0.0460
     27 C          62.6198   82.6580   14.0533 C.ar    1  UNL1        0.0516
     28 C          61.2280   82.2273   14.4105 C.ar    1  UNL1        0.0314
     29 C          60.7639   80.8400   14.0790 C.ar    1  UNL1        0.1401
     30 F          59.3721   80.4094   14.4363 F       1  UNL1       -0.2042
     31 C          61.6914   79.8833   13.3903 C.ar    1  UNL1        0.0319
     32 C          63.0830   80.3139   13.0331 C.ar    1  UNL1        0.0317
     33 C          63.5473   81.7012   13.3646 C.ar    1  UNL1        0.1400
     34 F          64.9391   82.1319   13.0073 F       1  UNL1       -0.2044
     35 C          62.5975   85.7370   10.8279 C.3     1  UNL1        0.1196
     36 C          61.2653   86.3008   10.4312 C.3     1  UNL1        0.1113
     37 N          60.4647   87.0983   11.4177 N.am    1  UNL1       -0.3026
     38 C          59.9215   88.4419   11.0309 C.2     1  UNL1        0.2230
     39 C          59.1208   89.2394   12.0173 C.3     1  UNL1        0.0946
     40 O          60.1789   88.9880    9.6577 O.2     1  UNL1       -0.2751
     41 H          60.2957   86.7399   12.3189 H       1  UNL1        0.1495
@<TRIPOS>BOND
     1    25    26    1
     2    26    13    1
     3    13    14   ar
     4    14    15   ar
     5    15    16    1
     6    15    17   ar
     7    17    18   ar
     8    18    19    1
     9    18    20   ar
    10    20     1    1
    11     1     2   ar
    12     2     3   ar
    13     3     4   ar
    14     4     5   ar
    15     5     6   ar
    16     5     7    1
    17     7    35    1
    18    35    36    1
    19    36    37    1
    20    37    38   am
    21    38    39    1
    22    38    40    2
    23     7     8   am
    24     8     9    2
    25     8    10    1
    26    10    11    1
    27    10    27    1
    28    27    28   ar
    29    28    29   ar
    30    29    30    1
    31    29    31   ar
    32    31    32   ar
    33    32    33   ar
    34    33    34    1
    35    10    12    1
    36    20    13   ar
    37     6     1   ar
    38    33    27   ar
    39    12     4    1
    40    16    21    1
    41    16    22    1
    42    19    23    1
    43    19    24    1
    44    37    41    1
@<TRIPOS>MOLECULE
*****
 41 44 0 0 0
SMALL
GASTEIGER

@<TRIPOS>ATOM
      1 C          64.1074   89.2680   13.1551 C.ar    1  UNL1        0.0053
      2 C          64.3441   89.1323   14.6301 C.ar    1  UNL1        0.0033
      3 C          64.1237   87.8118   15.3066 C.ar    1  UNL1        0.0382
      4 C          63.6666   86.6271   14.5082 C.ar    1  UNL1        0.1529
      5 C          63.4299   86.7628   13.0333 C.ar    1  UNL1        0.0882
      6 C          63.6503   88.0832   12.3567 C.ar    1  UNL1        0.0181
      7 N          62.9728   85.5780   12.2349 N.am    1  UNL1       -0.2512
      8 C          62.7524   84.2576   12.9115 C.2     1  UNL1        0.2698
      9 O          62.2953   83.0728   12.1131 O.2     1  UNL1       -0.2704
     10 C          62.9891   84.1218   14.3865 C.3     1  UNL1        0.2219
     11 C          63.0777   83.4996   15.7485 C.3     1  UNL1        0.0580
     12 O          63.4462   85.3066   15.1849 O.3     1  UNL1       -0.4685
     13 C          63.5913   90.9150   11.2132 C.ar    1  UNL1        0.0645
     14 N          63.8116   92.2354   10.5366 N.ar    1  UNL1       -0.2183
     15 C          64.7686   93.2294   11.1252 C.ar    1  UNL1        0.2145
     16 N          64.9890   94.5498   10.4485 N.pl3   1  UNL1       -0.3274
     17 N          65.5051   92.9028   12.3904 N.ar    1  UNL1       -0.1995
     18 C          65.2847   91.5823   13.0671 C.ar    1  UNL1        0.1293
     19 N          66.0213   91.2558   14.3323 N.pl3   1  UNL1       -0.3425
     20 C          64.3278   90.5885   12.4785 C.ar    1  UNL1        0.0449
     21 H          64.5055   94.7641    9.6181 H       1  UNL1        0.1452
     22 H          65.6170   95.2021   10.8348 H       1  UNL1        0.1452
     23 H          66.6494   91.9081   14.7186 H       1  UNL1        0.1437
     24 H          65.8766   90.3891   14.7764 H       1  UNL1        0.1437
     25 C          61.1792   90.2636   10.5008 C.3     1  UNL1        0.0067
     26 C          62.6343   89.9211   10.6246 C.3     1  UNL1        0.0460
     27 C          62.5628   82.7210   14.0611 C.ar    1  UNL1        0.0516
     28 C          61.1701   82.2667   14.3839 C.ar    1  UNL1        0.0314
     29 C          60.7439   80.8659   14.0585 C.ar    1  UNL1        0.1401
     30 F          59.3512   80.4116   14.3813 F       1  UNL1       -0.2042
     31 C          61.7102   79.9193   13.4103 C.ar    1  UNL1        0.0319
     32 C          63.1028   80.3735   13.0876 C.ar    1  UNL1        0.0317
     33 C          63.5291   81.7744   13.4130 C.ar    1  UNL1        0.1400
     34 F          64.9218   82.2287   13.0902 F       1  UNL1       -0.2044
     35 C          62.7362   85.7137   10.7600 C.3     1  UNL1        0.1196
     36 C          61.3381   85.6744   10.2179 C.3     1  UNL1        0.1113
     37 N          60.7152   86.9192    9.6588 N.am    1  UNL1       -0.3026
     38 C          60.1022   86.9014    8.2899 C.2     1  UNL1        0.2230
     39 C          59.4794   88.1461    7.7308 C.3     1  UNL1        0.0946
     40 O          60.1122   85.6387    7.4801 O.2     1  UNL1       -0.2751
     41 H          60.7087   87.7479   10.1903 H       1  UNL1        0.1495
@<TRIPOS>BOND
     1    25    26    1
     2    26    13    1
     3    13    14   ar
     4    14    15   ar
     5    15    16    1
     6    15    17   ar
     7    17    18   ar
     8    18    19    1
     9    18    20   ar
    10    20     1    1
    11     1     2   ar
    12     2     3   ar
    13     3     4   ar
    14     4     5   ar
    15     5     6   ar
    16     5     7    1
    17     7    35    1
    18    35    36    1
    19    36    37    1
    20    37    38   am
    21    38    39    1
    22    38    40    2
    23     7     8   am
    24     8     9    2
    25     8    10    1
    26    10    11    1
    27    10    27    1
    28    27    28   ar
    29    28    29   ar
    30    29    30    1
    31    29    31   ar
    32    31    32   ar
    33    32    33   ar
    34    33    34    1
    35    10    12    1
    36    20    13   ar
    37     6     1   ar
    38    33    27   ar
    39    12     4    1
    40    16    21    1
    41    16    22    1
    42    19    23    1
    43    19    24    1
    44    37    41    1
@<TRIPOS>MOLECULE
*****
 41 44 0 0 0
SMALL
GASTEIGER

@<TRIPOS>ATOM
      1 C          65.4320   90.5418   14.1715 C.ar    1  UNL1        0.0053
      2 C          65.2811   89.2412   14.9034 C.ar    1  UNL1        0.0033
      3 C          64.3983   88.1646   14.3452 C.ar    1  UNL1        0.0382
      4 C          63.6665   88.3887   13.0551 C.ar    1  UNL1        0.1529
      5 C          63.8174   89.6892   12.3233 C.ar    1  UNL1        0.0882
      6 C          64.7002   90.7658   12.8815 C.ar    1  UNL1        0.0181
      7 N          63.0855   89.9133   11.0333 N.am    1  UNL1       -0.2512
      8 C          62.2027   88.8367   10.4751 C.2     1  UNL1        0.2698
      9 O          61.4709   89.0607    9.1850 O.2     1  UNL1       -0.2704
     10 C          62.0518   87.5360   11.2069 C.3     1  UNL1        0.2219
     11 C          61.5911   86.1455   11.5297 C.3     1  UNL1        0.0580
     12 O          62.7836   87.3120   12.4970 O.3     1  UNL1       -0.4685
     13 C          65.9173   92.3392   15.9837 C.ar    1  UNL1        0.0645
     14 N          66.8000   93.4158   16.5419 N.ar    1  UNL1       -0.2183
     15 C          68.0804   93.7718   15.8461 C.ar    1  UNL1        0.2145
     16 N          68.9631   94.8484   16.4043 N.pl3   1  UNL1       -0.3274
     17 N          68.4779   93.0510   14.5921 N.ar    1  UNL1       -0.1995
     18 C          67.5951   91.9744   14.0339 C.ar    1  UNL1        0.1293
     19 N          67.9927   91.2536   12.7800 N.pl3   1  UNL1       -0.3425
     20 C          66.3148   91.6185   14.7297 C.ar    1  UNL1        0.0449
     21 H          68.7022   95.3214   17.2274 H       1  UNL1        0.1452
     22 H          69.8034   95.0820   15.9477 H       1  UNL1        0.1452
     23 H          68.8330   91.4872   12.3233 H       1  UNL1        0.1437
     24 H          67.4133   90.5470   12.4136 H       1  UNL1        0.1437
     25 C          63.7012   93.0663   17.1285 C.3     1  UNL1        0.0067
     26 C          64.6369   91.9833   16.6795 C.3     1  UNL1        0.0460
     27 C          61.1600   87.2771   10.0290 C.ar    1  UNL1        0.0516
     28 C          61.6424   86.4188    8.8973 C.ar    1  UNL1        0.0314
     29 C          60.7505   86.1600    7.7194 C.ar    1  UNL1        0.1401
     30 F          61.2329   85.3017    6.5877 F       1  UNL1       -0.2042
     31 C          59.3762   86.7593    7.6731 C.ar    1  UNL1        0.0319
     32 C          58.8939   87.6175    8.8047 C.ar    1  UNL1        0.0317
     33 C          59.7857   87.8765    9.9827 C.ar    1  UNL1        0.1400
     34 F          59.3033   88.7347   11.1144 F       1  UNL1       -0.2044
     35 C          63.2364   91.2138   10.3014 C.3     1  UNL1        0.1196
     36 C          64.5697   91.8999   10.2584 C.3     1  UNL1        0.1113
     37 N          64.6601   93.3787   10.4936 N.am    1  UNL1       -0.3026
     38 C          65.9943   94.0189   10.7386 C.2     1  UNL1        0.2230
     39 C          66.0848   95.4975   10.9738 C.3     1  UNL1        0.0946
     40 O          67.2381   93.1803   10.7484 O.2     1  UNL1       -0.2751
     41 H          63.8438   93.9290   10.4871 H       1  UNL1        0.1495
@<TRIPOS>BOND
     1    25    26    1
     2    26    13    1
     3    13    14   ar
     4    14    15   ar
     5    15    16    1
     6    15    17   ar
     7    17    18   ar
     8    18    19    1
     9    18    20   ar
    10    20     1    1
    11     1     2   ar
    12     2     3   ar
    13     3     4   ar
    14     4     5   ar
    15     5     6   ar
    16     5     7    1
    17     7    35    1
    18    35    36    1
    19    36    37    1
    20    37    38   am
    21    38    39    1
    22    38    40    2
    23     7     8   am
    24     8     9    2
    25     8    10    1
    26    10    11    1
    27    10    27    1
    28    27    28   ar
    29    28    29   ar
    30    29    30    1
    31    29    31   ar
    32    31    32   ar
    33    32    33   ar
    34    33    34    1
    35    10    12    1
    36    20    13   ar
    37     6     1   ar
    38    33    27   ar
    39    12     4    1
    40    16    21    1
    41    16    22    1
    42    19    23    1
    43    19    24    1
    44    37    41    1
@<TRIPOS>MOLECULE
*****
 41 44 0 0 0
SMALL
GASTEIGER

@<TRIPOS>ATOM
      1 C          62.7627   84.0740   11.6546 C.ar    1  UNL1        0.0053
      2 C          61.9685   84.9275   10.7108 C.ar    1  UNL1        0.0033
      3 C          61.9612   86.4186   10.8736 C.ar    1  UNL1        0.0382
      4 C          62.7481   87.0562   11.9801 C.ar    1  UNL1        0.1529
      5 C          63.5422   86.2026   12.9239 C.ar    1  UNL1        0.0882
      6 C          63.5495   84.7115   12.7611 C.ar    1  UNL1        0.0181
      7 N          64.3291   86.8402   14.0304 N.am    1  UNL1       -0.2512
      8 C          64.3218   88.3313   14.1932 C.2     1  UNL1        0.2698
      9 O          65.1086   88.9688   15.2997 O.2     1  UNL1       -0.2704
     10 C          63.5276   89.1849   13.2494 C.3     1  UNL1        0.2219
     11 C          62.9352   90.4073   12.6131 C.3     1  UNL1        0.0580
     12 O          62.7407   88.5473   12.1428 O.3     1  UNL1       -0.4685
     13 C          62.1928   81.7084   12.5653 C.ar    1  UNL1        0.0645
     14 N          62.2001   80.2173   12.4026 N.ar    1  UNL1       -0.2183
     15 C          62.7847   79.6005   11.1665 C.ar    1  UNL1        0.2145
     16 N          62.7920   78.1094   11.0038 N.pl3   1  UNL1       -0.3274
     17 N          63.3619   80.4749   10.0930 N.ar    1  UNL1       -0.1995
     18 C          63.3545   81.9661   10.2558 C.ar    1  UNL1        0.1293
     19 N          63.9317   82.8405    9.1823 N.pl3   1  UNL1       -0.3425
     20 C          62.7700   82.5828   11.4919 C.ar    1  UNL1        0.0449
     21 H          62.4132   77.5355   11.7083 H       1  UNL1        0.1452
     22 H          63.1756   77.7046   10.1925 H       1  UNL1        0.1452
     23 H          64.3154   82.4358    8.3710 H       1  UNL1        0.1437
     24 H          63.9269   83.8192    9.2891 H       1  UNL1        0.1437
     25 C          62.4673   82.5349   15.0131 C.3     1  UNL1        0.0067
     26 C          61.6083   82.3251   13.8014 C.3     1  UNL1        0.0460
     27 C          64.1087   90.2470   14.1349 C.ar    1  UNL1        0.0516
     28 C          65.2926   91.0438   13.6728 C.ar    1  UNL1        0.0314
     29 C          65.8736   92.1059   14.5584 C.ar    1  UNL1        0.1401
     30 F          67.0575   92.9027   14.0963 F       1  UNL1       -0.2042
     31 C          65.2709   92.3711   15.9061 C.ar    1  UNL1        0.0319
     32 C          64.0872   91.5744   16.3682 C.ar    1  UNL1        0.0317
     33 C          63.5060   90.5122   15.4826 C.ar    1  UNL1        0.1400
     34 F          62.3221   89.7154   15.9448 F       1  UNL1       -0.2044
     35 C          65.1232   85.9866   14.9742 C.3     1  UNL1        0.1196
     36 C          64.4327   85.2599   16.0900 C.3     1  UNL1        0.1113
     37 N          64.1559   85.9639   17.3854 N.am    1  UNL1       -0.3026
     38 C          62.7477   86.3204   17.7592 C.2     1  UNL1        0.2230
     39 C          62.4708   87.0243   19.0545 C.3     1  UNL1        0.0946
     40 O          61.6162   85.9729   16.8377 O.2     1  UNL1       -0.2751
     41 H          64.8985   86.1919   17.9902 H       1  UNL1        0.1495
@<TRIPOS>BOND
     1    25    26    1
     2    26    13    1
     3    13    14   ar
     4    14    15   ar
     5    15    16    1
     6    15    17   ar
     7    17    18   ar
     8    18    19    1
     9    18    20   ar
    10    20     1    1
    11     1     2   ar
    12     2     3   ar
    13     3     4   ar
    14     4     5   ar
    15     5     6   ar
    16     5     7    1
    17     7    35    1
    18    35    36    1
    19    36    37    1
    20    37    38   am
    21    38    39    1
    22    38    40    2
    23     7     8   am
    24     8     9    2
    25     8    10    1
    26    10    11    1
    27    10    27    1
    28    27    28   ar
    29    28    29   ar
    30    29    30    1
    31    29    31   ar
    32    31    32   ar
    33    32    33   ar
    34    33    34    1
    35    10    12    1
    36    20    13   ar
    37     6     1   ar
    38    33    27   ar
    39    12     4    1
    40    16    21    1
    41    16    22    1
    42    19    23    1
    43    19    24    1
    44    37    41    1
@<TRIPOS>MOLECULE
*****
 41 44 0 0 0
SMALL
GASTEIGER

@<TRIPOS>ATOM
      1 C          62.2514   93.6929    1.5449 C.ar    1  UNL1        0.0053
      2 C          63.3351   94.6520    1.9397 C.ar    1  UNL1        0.0033
      3 C          64.1588   95.3285    0.8844 C.ar    1  UNL1        0.0382
      4 C          63.8989   95.0460   -0.5657 C.ar    1  UNL1        0.1529
      5 C          62.8153   94.0869   -0.9604 C.ar    1  UNL1        0.0882
      6 C          61.9915   93.4104    0.0949 C.ar    1  UNL1        0.0181
      7 N          62.5553   93.8044   -2.4105 N.am    1  UNL1       -0.2512
      8 C          63.3791   94.4809   -3.4658 C.2     1  UNL1        0.2698
      9 O          63.1192   94.1984   -4.9158 O.2     1  UNL1       -0.2704
     10 C          64.4628   95.4401   -3.0710 C.3     1  UNL1        0.2219
     11 C          65.5924   96.4191   -3.1948 C.3     1  UNL1        0.0580
     12 O          64.7227   95.7226   -1.6210 O.3     1  UNL1       -0.4685
     13 C          62.0136   91.8933    3.4037 C.ar    1  UNL1        0.0645
     14 N          61.1899   91.2167    4.4590 N.ar    1  UNL1       -0.2183
     15 C          59.7801   91.6631    4.7109 C.ar    1  UNL1        0.2145
     16 N          58.9564   90.9865    5.7661 N.pl3   1  UNL1       -0.3274
     17 N          59.1941   92.7861    3.9074 N.ar    1  UNL1       -0.1995
     18 C          60.0179   93.4627    2.8521 C.ar    1  UNL1        0.1293
     19 N          59.4320   94.5857    2.0486 N.pl3   1  UNL1       -0.3425
     20 C          61.4276   93.0163    2.6003 C.ar    1  UNL1        0.0449
     21 H          59.3410   90.2495    6.2935 H       1  UNL1        0.1452
     22 H          58.0311   91.2795    5.9314 H       1  UNL1        0.1452
     23 H          58.5067   94.8787    2.2139 H       1  UNL1        0.1437
     24 H          59.9726   95.0298    1.3560 H       1  UNL1        0.1437
     25 C          63.7670   89.9875    3.1951 C.3     1  UNL1        0.0067
     26 C          63.4234   91.4469    3.1518 C.3     1  UNL1        0.0460
     27 C          64.5952   95.4976   -4.5640 C.ar    1  UNL1        0.0516
     28 C          65.7664   94.8471   -5.2387 C.ar    1  UNL1        0.0314
     29 C          65.8988   94.9046   -6.7318 C.ar    1  UNL1        0.1401
     30 F          67.0700   94.2542   -7.4065 F       1  UNL1       -0.2042
     31 C          64.8600   95.6126   -7.5501 C.ar    1  UNL1        0.0319
     32 C          63.6888   96.2630   -6.8755 C.ar    1  UNL1        0.0317
     33 C          63.5564   96.2055   -5.3824 C.ar    1  UNL1        0.1400
     34 F          62.3852   96.8559   -4.7077 F       1  UNL1       -0.2044
     35 C          61.4717   92.8453   -2.8052 C.3     1  UNL1        0.1196
     36 C          60.0618   93.3315   -2.9657 C.3     1  UNL1        0.1113
     37 N          58.9342   92.5926   -2.3077 N.am    1  UNL1       -0.3026
     38 C          57.5140   92.9729   -2.6046 C.2     1  UNL1        0.2230
     39 C          56.3865   92.2342   -1.9467 C.3     1  UNL1        0.0946
     40 O          57.2212   94.0922   -3.5595 O.2     1  UNL1       -0.2751
     41 H          59.1264   91.8580   -1.6810 H       1  UNL1        0.1495
@<TRIPOS>BOND
     1    25    26    1
     2    26    13    1
     3    13    14   ar
     4    14    15   ar
     5    15    16    1
     6    15    17   ar
     7    17    18   ar
     8    18    19    1
     9    18    20   ar
    10    20     1    1
    11     1     2   ar
    12     2     3   ar
    13     3     4   ar
    14     4     5   ar
    15     5     6   ar
    16     5     7    1
    17     7    35    1
    18    35    36    1
    19    36    37    1
    20    37    38   am
    21    38    39    1
    22    38    40    2
    23     7     8   am
    24     8     9    2
    25     8    10    1
    26    10    11    1
    27    10    27    1
    28    27    28   ar
    29    28    29   ar
    30    29    30    1
    31    29    31   ar
    32    31    32   ar
    33    32    33   ar
    34    33    34    1
    35    10    12    1
    36    20    13   ar
    37     6     1   ar
    38    33    27   ar
    39    12     4    1
    40    16    21    1
    41    16    22    1
    42    19    23    1
    43    19    24    1
    44    37    41    1
@<TRIPOS>MOLECULE
*****
 41 44 0 0 0
SMALL
GASTEIGER

@<TRIPOS>ATOM
      1 C          64.0864   89.2222   13.3680 C.ar    1  UNL1        0.0053
      2 C          64.3042   89.1072   14.8476 C.ar    1  UNL1        0.0033
      3 C          64.0621   87.7998   15.5419 C.ar    1  UNL1        0.0382
      4 C          63.6023   86.6074   14.7566 C.ar    1  UNL1        0.1529
      5 C          63.3845   86.7224   13.2770 C.ar    1  UNL1        0.0882
      6 C          63.6266   88.0298   12.5827 C.ar    1  UNL1        0.0181
      7 N          62.9246   85.5300   12.4916 N.am    1  UNL1       -0.2512
      8 C          62.6826   84.2226   13.1859 C.2     1  UNL1        0.2698
      9 O          62.2227   83.0302   12.4006 O.2     1  UNL1       -0.2704
     10 C          62.9004   84.1076   14.6656 C.3     1  UNL1        0.2219
     11 C          62.9664   83.5059   16.0381 C.3     1  UNL1        0.0580
     12 O          63.3602   85.2999   15.4509 O.3     1  UNL1       -0.4685
     13 C          63.5092   90.9049   11.4745 C.ar    1  UNL1        0.0645
     14 N          63.7512   92.2123   10.7802 N.ar    1  UNL1       -0.2183
     15 C          64.8125   93.1444   11.2849 C.ar    1  UNL1        0.2145
     16 N          65.0546   94.4518   10.5906 N.pl3   1  UNL1       -0.3274
     17 N          65.6318   92.7691   12.4841 N.ar    1  UNL1       -0.1995
     18 C          65.3898   91.4617   13.1784 C.ar    1  UNL1        0.1293
     19 N          66.2090   91.0864   14.3776 N.pl3   1  UNL1       -0.3425
     20 C          64.3285   90.5296   12.6737 C.ar    1  UNL1        0.0449
     21 H          64.5168   94.6981    9.8035 H       1  UNL1        0.1452
     22 H          65.7511   95.0636   10.9219 H       1  UNL1        0.1452
     23 H          66.9056   91.6982   14.7089 H       1  UNL1        0.1437
     24 H          66.0502   90.2283   14.8333 H       1  UNL1        0.1437
     25 C          62.1558   89.8940    9.5006 C.3     1  UNL1        0.0067
     26 C          62.4478   89.9728   10.9698 C.3     1  UNL1        0.0460
     27 C          62.4635   82.7062   14.3569 C.ar    1  UNL1        0.0516
     28 C          61.0126   82.3361   14.4464 C.ar    1  UNL1        0.0314
     29 C          60.5758   80.9347   14.1376 C.ar    1  UNL1        0.1401
     30 F          59.1249   80.5645   14.2271 F       1  UNL1       -0.2042
     31 C          61.5897   79.9035   13.7395 C.ar    1  UNL1        0.0319
     32 C          63.0404   80.2736   13.6501 C.ar    1  UNL1        0.0317
     33 C          63.4774   81.6750   13.9588 C.ar    1  UNL1        0.1400
     34 F          64.9283   82.0452   13.8694 F       1  UNL1       -0.2044
     35 C          62.7069   85.6450   11.0120 C.3     1  UNL1        0.1196
     36 C          63.4886   84.7789   10.0693 C.3     1  UNL1        0.1113
     37 N          63.0497   83.3685    9.8077 N.am    1  UNL1       -0.3026
     38 C          63.8663   82.2210   10.3237 C.2     1  UNL1        0.2230
     39 C          63.4275   80.8107   10.0621 C.3     1  UNL1        0.0946
     40 O          65.1219   82.4838   11.1013 O.2     1  UNL1       -0.2751
     41 H          62.2256   83.1961    9.2974 H       1  UNL1        0.1495
@<TRIPOS>BOND
     1    25    26    1
     2    26    13    1
     3    13    14   ar
     4    14    15   ar
     5    15    16    1
     6    15    17   ar
     7    17    18   ar
     8    18    19    1
     9    18    20   ar
    10    20     1    1
    11     1     2   ar
    12     2     3   ar
    13     3     4   ar
    14     4     5   ar
    15     5     6   ar
    16     5     7    1
    17     7    35    1
    18    35    36    1
    19    36    37    1
    20    37    38   am
    21    38    39    1
    22    38    40    2
    23     7     8   am
    24     8     9    2
    25     8    10    1
    26    10    11    1
    27    10    27    1
    28    27    28   ar
    29    28    29   ar
    30    29    30    1
    31    29    31   ar
    32    31    32   ar
    33    32    33   ar
    34    33    34    1
    35    10    12    1
    36    20    13   ar
    37     6     1   ar
    38    33    27   ar
    39    12     4    1
    40    16    21    1
    41    16    22    1
    42    19    23    1
    43    19    24    1
    44    37    41    1
