@<TRIPOS>MOLECULE
*****
 26 28 0 0 0
SMALL
GASTEIGER

@<TRIPOS>ATOM
      1 C          65.7433   92.1737   14.1620 C.ar    1  UNL1        0.0756
      2 C          65.3367   90.9353   14.9042 C.ar    1  UNL1        0.0064
      3 C          64.4329   89.9321   14.2508 C.ar    1  UNL1        0.0002
      4 C          63.9357   90.1674   12.8554 C.ar    1  UNL1       -0.0002
      5 C          63.0319   89.1643   12.2020 C.ar    1  UNL1       -0.0017
      6 C          62.5347   89.3996   10.8065 C.ar    1  UNL1        0.0070
      7 C          62.9414   90.6381   10.0643 C.ar    1  UNL1       -0.0017
      8 C          63.8452   91.6413   10.7176 C.ar    1  UNL1       -0.0002
      9 C          64.3423   91.4059   12.1132 C.ar    1  UNL1        0.0002
     10 C          65.2461   92.4090   12.7665 C.ar    1  UNL1        0.0064
     11 C          61.6309   88.3965   10.1532 C.3     1  UNL1        0.1410
     12 O          62.7896   87.8693    9.3598 O.3     1  UNL1       -0.3771
     13 H          63.5904   88.3672    9.5871 H       1  UNL1        0.2112
     14 C          60.4722   88.9237   10.9467 C.ar    1  UNL1        0.0825
     15 C          59.8901   90.3024   10.8471 C.ar    1  UNL1        0.1157
     16 N          58.7503   90.3955   11.8178 N.ar    1  UNL1       -0.2228
     17 C          58.6282   89.0743   12.5174 C.ar    1  UNL1        0.1749
     18 N          59.6924   88.1646   11.9789 N.ar    1  UNL1       -0.3361
     19 H          59.8512   87.2329   12.2546 H       1  UNL1        0.1673
     20 C          60.7271   87.3933    9.4999 C.3     1  UNL1        0.0340
     21 C          59.6247   87.8553    8.5938 C.3     1  UNL1        0.0031
     22 C          60.9258   85.9281    9.7527 C.3     1  UNL1        0.0031
     23 C          66.6471   93.1769   14.8153 C.2     1  UNL1        0.3413
     24 O          66.8421   94.5278   14.1933 O.2     1  UNL1       -0.2449
     25 C          68.8133   92.4749   16.0663 C.3     1  UNL1        0.2560
     26 O          67.3559   92.8291   16.0907 O.3     1  UNL1       -0.4413
@<TRIPOS>BOND
     1    25    26    1
     2    26    23    1
     3    23    24    2
     4    23     1    1
     5     1     2   ar
     6     2     3   ar
     7     3     4   ar
     8     4     5   ar
     9     5     6   ar
    10     6    11    1
    11    11    12    1
    12    11    14    1
    13    14    15   ar
    14    15    16   ar
    15    16    17   ar
    16    17    18   ar
    17    11    20    1
    18    20    21    1
    19    20    22    1
    20     6     7   ar
    21     7     8   ar
    22     8     9   ar
    23     9    10   ar
    24    10     1   ar
    25     9     4   ar
    26    18    14   ar
    27    12    13    1
    28    18    19    1
@<TRIPOS>MOLECULE
*****
 26 28 0 0 0
SMALL
GASTEIGER

@<TRIPOS>ATOM
      1 C          63.9060   89.5663   13.1290 C.ar    1  UNL1        0.0756
      2 C          63.0801   89.0400   11.9929 C.ar    1  UNL1        0.0064
      3 C          62.7101   87.5871   11.9446 C.ar    1  UNL1        0.0002
      4 C          63.1662   86.6605   13.0325 C.ar    1  UNL1       -0.0002
      5 C          62.7963   85.2077   12.9842 C.ar    1  UNL1       -0.0017
      6 C          63.2523   84.2811   14.0721 C.ar    1  UNL1        0.0070
      7 C          64.0783   84.8074   15.2082 C.ar    1  UNL1       -0.0017
      8 C          64.4482   86.2603   15.2565 C.ar    1  UNL1       -0.0002
      9 C          63.9921   87.1868   14.1686 C.ar    1  UNL1        0.0002
     10 C          64.3621   88.6397   14.2168 C.ar    1  UNL1        0.0064
     11 C          62.8824   82.8282   14.0238 C.3     1  UNL1        0.1410
     12 O          62.3495   82.9175   15.4231 O.3     1  UNL1       -0.3771
     13 H          62.4601   83.8225   15.7542 H       1  UNL1        0.2112
     14 C          63.4153   82.7390   12.6245 C.ar    1  UNL1        0.0825
     15 C          64.8250   83.0234   12.1982 C.ar    1  UNL1        0.1157
     16 N          64.9130   82.8099   10.7161 N.ar    1  UNL1       -0.2228
     17 C          63.5577   82.3935   10.2265 C.ar    1  UNL1        0.1749
     18 N          62.6320   82.3498   11.4060 N.ar    1  UNL1       -0.3361
     19 H          61.6779   82.1080   11.3842 H       1  UNL1        0.1673
     20 C          62.5124   81.3754   13.9756 C.3     1  UNL1        0.0340
     21 C          63.5814   80.3339   13.8254 C.3     1  UNL1        0.0031
     22 C          61.0735   80.9640   14.0776 C.3     1  UNL1        0.0031
     23 C          64.2760   91.0192   13.1772 C.2     1  UNL1        0.3413
     24 O          64.5190   91.6878   14.4977 O.2     1  UNL1       -0.2449
     25 C          65.5567   92.7429   11.7149 C.3     1  UNL1        0.2560
     26 O          64.4029   91.8034   11.9049 O.3     1  UNL1       -0.4413
@<TRIPOS>BOND
     1    25    26    1
     2    26    23    1
     3    23    24    2
     4    23     1    1
     5     1     2   ar
     6     2     3   ar
     7     3     4   ar
     8     4     5   ar
     9     5     6   ar
    10     6    11    1
    11    11    12    1
    12    11    14    1
    13    14    15   ar
    14    15    16   ar
    15    16    17   ar
    16    17    18   ar
    17    11    20    1
    18    20    21    1
    19    20    22    1
    20     6     7   ar
    21     7     8   ar
    22     8     9   ar
    23     9    10   ar
    24    10     1   ar
    25     9     4   ar
    26    18    14   ar
    27    12    13    1
    28    18    19    1
@<TRIPOS>MOLECULE
*****
 26 28 0 0 0
SMALL
GASTEIGER

@<TRIPOS>ATOM
      1 C          60.6828   86.9587    9.1908 C.ar    1  UNL1        0.0756
      2 C          61.3296   86.0474   10.1914 C.ar    1  UNL1        0.0064
      3 C          62.2137   86.6155   11.2617 C.ar    1  UNL1        0.0002
      4 C          62.4510   88.0950   11.3314 C.ar    1  UNL1       -0.0002
      5 C          63.3351   88.6631   12.4017 C.ar    1  UNL1       -0.0017
      6 C          63.5724   90.1425   12.4715 C.ar    1  UNL1        0.0070
      7 C          62.9256   91.0539   11.4709 C.ar    1  UNL1       -0.0017
      8 C          62.0415   90.4858   10.4006 C.ar    1  UNL1       -0.0002
      9 C          61.8042   89.0063   10.3309 C.ar    1  UNL1        0.0002
     10 C          60.9201   88.4381    9.2606 C.ar    1  UNL1        0.0064
     11 C          64.4566   90.7107   13.5418 C.3     1  UNL1        0.1410
     12 O          65.0209   91.6901   12.5557 O.3     1  UNL1       -0.3771
     13 H          64.6035   91.5548   11.6906 H       1  UNL1        0.2112
     14 C          63.8922   89.7313   14.5279 C.ar    1  UNL1        0.0825
     15 C          64.4570   88.3796   14.8497 C.ar    1  UNL1        0.1157
     16 N          63.5779   87.7446   15.8859 N.ar    1  UNL1       -0.2228
     17 C          62.4697   88.7039   16.2045 C.ar    1  UNL1        0.1749
     18 N          62.6640   89.9318   15.3652 N.ar    1  UNL1       -0.3361
     19 H          62.0867   90.7293   15.3641 H       1  UNL1        0.1673
     20 C          65.3407   91.2788   14.6121 C.3     1  UNL1        0.0340
     21 C          64.7352   91.8543   15.8579 C.3     1  UNL1        0.0031
     22 C          66.8304   91.2715   14.4365 C.3     1  UNL1        0.0031
     23 C          59.7986   86.3905    8.1205 C.2     1  UNL1        0.3413
     24 O          58.3921   86.8886    7.9669 O.2     1  UNL1       -0.2449
     25 C          61.7999   85.1349    7.0398 C.3     1  UNL1        0.2560
     26 O          60.3210   85.3244    7.2039 O.3     1  UNL1       -0.4413
@<TRIPOS>BOND
     1    25    26    1
     2    26    23    1
     3    23    24    2
     4    23     1    1
     5     1     2   ar
     6     2     3   ar
     7     3     4   ar
     8     4     5   ar
     9     5     6   ar
    10     6    11    1
    11    11    12    1
    12    11    14    1
    13    14    15   ar
    14    15    16   ar
    15    16    17   ar
    16    17    18   ar
    17    11    20    1
    18    20    21    1
    19    20    22    1
    20     6     7   ar
    21     7     8   ar
    22     8     9   ar
    23     9    10   ar
    24    10     1   ar
    25     9     4   ar
    26    18    14   ar
    27    12    13    1
    28    18    19    1
@<TRIPOS>MOLECULE
*****
 26 28 0 0 0
SMALL
GASTEIGER

@<TRIPOS>ATOM
      1 C          61.5852   88.3541   10.3075 C.ar    1  UNL1        0.0756
      2 C          61.7407   89.7131    9.6922 C.ar    1  UNL1        0.0064
      3 C          62.6102   90.7409   10.3537 C.ar    1  UNL1        0.0002
      4 C          63.3242   90.4096   11.6306 C.ar    1  UNL1       -0.0002
      5 C          64.1937   91.4374   12.2921 C.ar    1  UNL1       -0.0017
      6 C          64.9076   91.1061   13.5690 C.ar    1  UNL1        0.0070
      7 C          64.7521   89.7470   14.1845 C.ar    1  UNL1       -0.0017
      8 C          63.8826   88.7192   13.5229 C.ar    1  UNL1       -0.0002
      9 C          63.1686   89.0506   12.2460 C.ar    1  UNL1        0.0002
     10 C          62.2991   88.0228   11.5844 C.ar    1  UNL1        0.0064
     11 C          65.7771   92.1339   14.2306 C.3     1  UNL1        0.1410
     12 O          64.9215   92.0659   15.4608 O.3     1  UNL1       -0.3771
     13 H          64.2070   91.4247   15.3226 H       1  UNL1        0.2112
     14 C          66.6327   92.2019   13.0004 C.ar    1  UNL1        0.0825
     15 C          68.0061   91.6184   12.8484 C.ar    1  UNL1        0.1157
     16 N          68.4873   91.9212   11.4603 N.ar    1  UNL1       -0.2228
     17 C          67.4112   92.6919   10.7545 C.ar    1  UNL1        0.1749
     18 N          66.2650   92.8653   11.7064 N.ar    1  UNL1       -0.3361
     19 H          65.4198   93.3326   11.5153 H       1  UNL1        0.1673
     20 C          66.6466   93.1617   14.8921 C.3     1  UNL1        0.0340
     21 C          67.2623   92.8747   16.2294 C.3     1  UNL1        0.0031
     22 C          66.9004   94.4766   14.2163 C.3     1  UNL1        0.0031
     23 C          60.7157   87.3263    9.6460 C.2     1  UNL1        0.3413
     24 O          60.9645   85.8667    9.8861 O.2     1  UNL1       -0.2449
     25 C          59.0519   86.8091    7.7188 C.3     1  UNL1        0.2560
     26 O          59.5974   87.7581    8.7444 O.3     1  UNL1       -0.4413
@<TRIPOS>BOND
     1    25    26    1
     2    26    23    1
     3    23    24    2
     4    23     1    1
     5     1     2   ar
     6     2     3   ar
     7     3     4   ar
     8     4     5   ar
     9     5     6   ar
    10     6    11    1
    11    11    12    1
    12    11    14    1
    13    14    15   ar
    14    15    16   ar
    15    16    17   ar
    16    17    18   ar
    17    11    20    1
    18    20    21    1
    19    20    22    1
    20     6     7   ar
    21     7     8   ar
    22     8     9   ar
    23     9    10   ar
    24    10     1   ar
    25     9     4   ar
    26    18    14   ar
    27    12    13    1
    28    18    19    1
@<TRIPOS>MOLECULE
*****
 26 28 0 0 0
SMALL
GASTEIGER

@<TRIPOS>ATOM
      1 C          60.7865   87.7386    9.2737 C.ar    1  UNL1        0.0756
      2 C          61.2590   86.7700   10.3170 C.ar    1  UNL1        0.0064
      3 C          62.1678   87.2354   11.4158 C.ar    1  UNL1        0.0002
      4 C          62.6040   88.6695   11.4714 C.ar    1  UNL1       -0.0002
      5 C          63.5128   89.1349   12.5703 C.ar    1  UNL1       -0.0017
      6 C          63.9491   90.5689   12.6259 C.ar    1  UNL1        0.0070
      7 C          63.4766   91.5376   11.5826 C.ar    1  UNL1       -0.0017
      8 C          62.5678   91.0722   10.4837 C.ar    1  UNL1       -0.0002
      9 C          62.1315   89.6381   10.4282 C.ar    1  UNL1        0.0002
     10 C          61.2228   89.1727    9.3293 C.ar    1  UNL1        0.0064
     11 C          64.8579   91.0343   13.7248 C.3     1  UNL1        0.1410
     12 O          65.5118   91.9955   12.7769 O.3     1  UNL1       -0.3771
     13 H          65.0987   91.9189   11.9026 H       1  UNL1        0.2112
     14 C          64.2039   90.0732   14.6727 C.ar    1  UNL1        0.0825
     15 C          64.5304   88.6162   14.8157 C.ar    1  UNL1        0.1157
     16 N          63.6369   88.0429   15.8754 N.ar    1  UNL1       -0.2228
     17 C          62.7583   89.1455   16.3873 C.ar    1  UNL1        0.1749
     18 N          63.1087   90.4004   15.6440 N.ar    1  UNL1       -0.3361
     19 H          62.6929   91.2837   15.7712 H       1  UNL1        0.1673
     20 C          65.7666   91.4998   14.8237 C.3     1  UNL1        0.0340
     21 C          67.2400   91.2301   14.7432 C.3     1  UNL1        0.0031
     22 C          65.2020   92.2349   16.0031 C.3     1  UNL1        0.0031
     23 C          59.8777   87.2732    8.1748 C.2     1  UNL1        0.3413
     24 O          60.0050   85.8791    7.6363 O.2     1  UNL1       -0.2449
     25 C          59.2433   89.2816    6.6537 C.3     1  UNL1        0.2560
     26 O          58.8417   88.2020    7.6145 O.3     1  UNL1       -0.4413
@<TRIPOS>BOND
     1    25    26    1
     2    26    23    1
     3    23    24    2
     4    23     1    1
     5     1     2   ar
     6     2     3   ar
     7     3     4   ar
     8     4     5   ar
     9     5     6   ar
    10     6    11    1
    11    11    12    1
    12    11    14    1
    13    14    15   ar
    14    15    16   ar
    15    16    17   ar
    16    17    18   ar
    17    11    20    1
    18    20    21    1
    19    20    22    1
    20     6     7   ar
    21     7     8   ar
    22     8     9   ar
    23     9    10   ar
    24    10     1   ar
    25     9     4   ar
    26    18    14   ar
    27    12    13    1
    28    18    19    1
@<TRIPOS>MOLECULE
*****
 26 28 0 0 0
SMALL
GASTEIGER

@<TRIPOS>ATOM
      1 C          61.1372   87.9220    9.6322 C.ar    1  UNL1        0.0756
      2 C          61.5574   87.0235   10.7573 C.ar    1  UNL1        0.0064
      3 C          62.4796   87.5371   11.8230 C.ar    1  UNL1        0.0002
      4 C          62.9815   88.9494   11.7636 C.ar    1  UNL1       -0.0002
      5 C          63.9037   89.4631   12.8293 C.ar    1  UNL1       -0.0017
      6 C          64.4056   90.8753   12.7699 C.ar    1  UNL1        0.0070
      7 C          63.9854   91.7740   11.6447 C.ar    1  UNL1       -0.0017
      8 C          63.0632   91.2603   10.5790 C.ar    1  UNL1       -0.0002
      9 C          62.5613   89.8480   10.6385 C.ar    1  UNL1        0.0002
     10 C          61.6391   89.3343    9.5728 C.ar    1  UNL1        0.0064
     11 C          65.3278   91.3890   13.8356 C.3     1  UNL1        0.1410
     12 O          64.7213   90.4341   14.8207 O.3     1  UNL1       -0.3771
     13 H          64.0283   89.9151   14.3833 H       1  UNL1        0.2112
     14 C          65.9343   92.3438   12.8505 C.ar    1  UNL1        0.0825
     15 C          66.8904   91.9873   11.7512 C.ar    1  UNL1        0.1157
     16 N          67.2382   93.2459   11.0131 N.ar    1  UNL1       -0.2228
     17 C          66.4971   94.3804   11.6564 C.ar    1  UNL1        0.1749
     18 N          65.6912   93.8228   12.7920 N.ar    1  UNL1       -0.3361
     19 H          65.1056   94.3372   13.3933 H       1  UNL1        0.1673
     20 C          66.2500   91.9026   14.9013 C.3     1  UNL1        0.0340
     21 C          67.7328   91.7279   14.7581 C.3     1  UNL1        0.0031
     22 C          65.6892   92.5911   16.1103 C.3     1  UNL1        0.0031
     23 C          60.2150   87.4084    8.5664 C.2     1  UNL1        0.3413
     24 O          60.3917   86.0199    8.0271 O.2     1  UNL1       -0.2449
     25 C          59.3508   89.1343    6.8274 C.3     1  UNL1        0.2560
     26 O          59.1161   88.2832    8.0400 O.3     1  UNL1       -0.4413
@<TRIPOS>BOND
     1    25    26    1
     2    26    23    1
     3    23    24    2
     4    23     1    1
     5     1     2   ar
     6     2     3   ar
     7     3     4   ar
     8     4     5   ar
     9     5     6   ar
    10     6    11    1
    11    11    12    1
    12    11    14    1
    13    14    15   ar
    14    15    16   ar
    15    16    17   ar
    16    17    18   ar
    17    11    20    1
    18    20    21    1
    19    20    22    1
    20     6     7   ar
    21     7     8   ar
    22     8     9   ar
    23     9    10   ar
    24    10     1   ar
    25     9     4   ar
    26    18    14   ar
    27    12    13    1
    28    18    19    1
@<TRIPOS>MOLECULE
*****
 26 28 0 0 0
SMALL
GASTEIGER

@<TRIPOS>ATOM
      1 C          63.0145   82.4311   12.8017 C.ar    1  UNL1        0.0756
      2 C          63.7710   82.7362   14.0605 C.ar    1  UNL1        0.0064
      3 C          64.0775   84.1585   14.4254 C.ar    1  UNL1        0.0002
      4 C          63.6275   85.2757   13.5314 C.ar    1  UNL1       -0.0002
      5 C          63.9339   86.6980   13.8963 C.ar    1  UNL1       -0.0017
      6 C          63.4839   87.8153   13.0023 C.ar    1  UNL1        0.0070
      7 C          62.7274   87.5103   11.7435 C.ar    1  UNL1       -0.0017
      8 C          62.4209   86.0880   11.3786 C.ar    1  UNL1       -0.0002
      9 C          62.8710   84.9707   12.2726 C.ar    1  UNL1        0.0002
     10 C          62.5645   83.5484   11.9078 C.ar    1  UNL1        0.0064
     11 C          63.7904   89.2376   13.3672 C.3     1  UNL1        0.1410
     12 O          64.8287   88.7641   14.3407 O.3     1  UNL1       -0.3771
     13 H          64.8657   87.7949   14.3280 H       1  UNL1        0.2112
     14 C          62.7520   89.7110   12.3937 C.ar    1  UNL1        0.0825
     15 C          62.9877   90.0618   10.9545 C.ar    1  UNL1        0.1157
     16 N          61.6770   90.4844   10.3598 N.ar    1  UNL1       -0.2228
     17 C          60.6314   90.3948   11.4316 C.ar    1  UNL1        0.1749
     18 N          61.2958   89.9169   12.6886 N.ar    1  UNL1       -0.3361
     19 H          60.8538   89.7649   13.5551 H       1  UNL1        0.1673
     20 C          64.0968   90.6599   13.7320 C.3     1  UNL1        0.0340
     21 C          63.9308   91.1232   15.1490 C.3     1  UNL1        0.0031
     22 C          64.5694   91.6189   12.6799 C.3     1  UNL1        0.0031
     23 C          62.7081   81.0088   12.4369 C.2     1  UNL1        0.3413
     24 O          63.1307   80.4690   11.1028 O.2     1  UNL1       -0.2449
     25 C          60.7662   80.6411   14.1232 C.3     1  UNL1        0.2560
     26 O          61.9790   80.1263   13.4061 O.3     1  UNL1       -0.4413
@<TRIPOS>BOND
     1    25    26    1
     2    26    23    1
     3    23    24    2
     4    23     1    1
     5     1     2   ar
     6     2     3   ar
     7     3     4   ar
     8     4     5   ar
     9     5     6   ar
    10     6    11    1
    11    11    12    1
    12    11    14    1
    13    14    15   ar
    14    15    16   ar
    15    16    17   ar
    16    17    18   ar
    17    11    20    1
    18    20    21    1
    19    20    22    1
    20     6     7   ar
    21     7     8   ar
    22     8     9   ar
    23     9    10   ar
    24    10     1   ar
    25     9     4   ar
    26    18    14   ar
    27    12    13    1
    28    18    19    1
@<TRIPOS>MOLECULE
*****
 26 28 0 0 0
SMALL
GASTEIGER

@<TRIPOS>ATOM
      1 C          62.9466   82.2159   12.8543 C.ar    1  UNL1        0.0756
      2 C          62.7090   83.0931   14.0476 C.ar    1  UNL1        0.0064
      3 C          62.4739   84.5631   13.8630 C.ar    1  UNL1        0.0002
      4 C          62.4765   85.1558   12.4851 C.ar    1  UNL1       -0.0002
      5 C          62.2414   86.6257   12.3005 C.ar    1  UNL1       -0.0017
      6 C          62.2439   87.2184   10.9226 C.ar    1  UNL1        0.0070
      7 C          62.4815   86.3412    9.7292 C.ar    1  UNL1       -0.0017
      8 C          62.7166   84.8713    9.9138 C.ar    1  UNL1       -0.0002
      9 C          62.7141   84.2786   11.2918 C.ar    1  UNL1        0.0002
     10 C          62.9491   82.8087   11.4764 C.ar    1  UNL1        0.0064
     11 C          62.0089   88.6884   10.7380 C.3     1  UNL1        0.1410
     12 O          63.0868   88.9863   11.7377 O.3     1  UNL1       -0.3771
     13 H          63.4624   88.1543   12.0658 H       1  UNL1        0.2112
     14 C          60.9310   88.3905    9.7383 C.ar    1  UNL1        0.0825
     15 C          59.8610   87.3489    9.8796 C.ar    1  UNL1        0.1157
     16 N          59.0026   87.3965    8.6504 N.ar    1  UNL1       -0.2228
     17 C          59.5422   88.4676    7.7495 C.ar    1  UNL1        0.1749
     18 N          60.7341   89.0818    8.4219 N.ar    1  UNL1       -0.3361
     19 H          61.2895   89.8108    8.0623 H       1  UNL1        0.1673
     20 C          61.7738   90.1583   10.5534 C.3     1  UNL1        0.0340
     21 C          60.4391   90.7527   10.8923 C.3     1  UNL1        0.0031
     22 C          62.8737   91.0338   10.0299 C.3     1  UNL1        0.0031
     23 C          63.1816   80.7460   13.0388 C.2     1  UNL1        0.3413
     24 O          64.0889   80.2629   14.1312 O.2     1  UNL1       -0.2449
     25 C          62.9902   79.5893   10.7204 C.3     1  UNL1        0.2560
     26 O          62.5094   79.7592   12.1310 O.3     1  UNL1       -0.4413
@<TRIPOS>BOND
     1    25    26    1
     2    26    23    1
     3    23    24    2
     4    23     1    1
     5     1     2   ar
     6     2     3   ar
     7     3     4   ar
     8     4     5   ar
     9     5     6   ar
    10     6    11    1
    11    11    12    1
    12    11    14    1
    13    14    15   ar
    14    15    16   ar
    15    16    17   ar
    16    17    18   ar
    17    11    20    1
    18    20    21    1
    19    20    22    1
    20     6     7   ar
    21     7     8   ar
    22     8     9   ar
    23     9    10   ar
    24    10     1   ar
    25     9     4   ar
    26    18    14   ar
    27    12    13    1
    28    18    19    1
@<TRIPOS>MOLECULE
*****
 26 28 0 0 0
SMALL
GASTEIGER

@<TRIPOS>ATOM
      1 C          63.0369   82.5608   13.4124 C.ar    1  UNL1        0.0756
      2 C          62.5703   83.0531   12.0745 C.ar    1  UNL1        0.0064
      3 C          62.6353   84.5159   11.7492 C.ar    1  UNL1        0.0002
      4 C          63.1667   85.4866   12.7618 C.ar    1  UNL1       -0.0002
      5 C          63.2317   86.9494   12.4365 C.ar    1  UNL1       -0.0017
      6 C          63.7631   87.9200   13.4490 C.ar    1  UNL1        0.0070
      7 C          64.2297   87.4278   14.7870 C.ar    1  UNL1       -0.0017
      8 C          64.1648   85.9650   15.1123 C.ar    1  UNL1       -0.0002
      9 C          63.6333   84.9943   14.0996 C.ar    1  UNL1        0.0002
     10 C          63.5684   83.5315   14.4249 C.ar    1  UNL1        0.0064
     11 C          63.8281   89.3829   13.1237 C.3     1  UNL1        0.1410
     12 O          65.0614   89.5157   13.9670 O.3     1  UNL1       -0.3771
     13 H          65.2877   88.6524   14.3471 H       1  UNL1        0.2112
     14 C          62.5947   89.2501   12.2805 C.ar    1  UNL1        0.0825
     15 C          62.5434   88.7567   10.8649 C.ar    1  UNL1        0.1157
     16 N          61.1131   88.7891   10.4143 N.ar    1  UNL1       -0.2228
     17 C          60.2804   89.3025   11.5514 C.ar    1  UNL1        0.1749
     18 N          61.1961   89.5874   12.7047 N.ar    1  UNL1       -0.3361
     19 H          60.9265   89.9348   13.5856 H       1  UNL1        0.1673
     20 C          63.8930   90.8458   12.7984 C.3     1  UNL1        0.0340
     21 C          63.6756   91.3111   11.3891 C.3     1  UNL1        0.0031
     22 C          64.1753   91.8433   13.8826 C.3     1  UNL1        0.0031
     23 C          62.9720   81.0980   13.7377 C.2     1  UNL1        0.3413
     24 O          64.1488   80.4177   14.3718 O.2     1  UNL1       -0.2449
     25 C          60.4442   80.6422   14.1283 C.3     1  UNL1        0.2560
     26 O          61.7302   80.3154   13.4288 O.3     1  UNL1       -0.4413
@<TRIPOS>BOND
     1    25    26    1
     2    26    23    1
     3    23    24    2
     4    23     1    1
     5     1     2   ar
     6     2     3   ar
     7     3     4   ar
     8     4     5   ar
     9     5     6   ar
    10     6    11    1
    11    11    12    1
    12    11    14    1
    13    14    15   ar
    14    15    16   ar
    15    16    17   ar
    16    17    18   ar
    17    11    20    1
    18    20    21    1
    19    20    22    1
    20     6     7   ar
    21     7     8   ar
    22     8     9   ar
    23     9    10   ar
    24    10     1   ar
    25     9     4   ar
    26    18    14   ar
    27    12    13    1
    28    18    19    1
