@<TRIPOS>MOLECULE
*****
 24 27 0 0 0
SMALL
GASTEIGER

@<TRIPOS>ATOM
      1 C          66.1322   93.5464   11.5876 C.2     1  UNL1        0.1230
      2 C          65.1543   93.0542   10.5622 C.2     1  UNL1        0.0442
      3 C          64.2247   91.9246   10.8938 C.2     1  UNL1        0.0617
      4 CL         63.2469   91.4323    9.8684 Cl      1  UNL1       -0.0821
      5 C          64.2729   91.2874   12.2509 C.2     1  UNL1        0.0324
      6 C          63.4867   90.1652   12.8613 C.2     1  UNL1        0.0966
      7 C          63.9786   89.9639   14.2639 C.2     1  UNL1        0.1049
      8 N          65.0688   90.9617   14.5204 N.2     1  UNL1       -0.2475
      9 C          65.2507   91.7797   13.2763 C.2     1  UNL1        0.0676
     10 C          66.1803   92.9092   12.9447 C.3     1  UNL1        0.1096
     11 C          67.0190   95.3079    9.8963 C.3     1  UNL1        0.2520
     12 O          67.0618   94.6759   11.2560 O.2     1  UNL1       -0.4753
     13 C          62.3995   89.3818   12.1873 C.2     1  UNL1        0.3428
     14 O          60.9665   89.6053   12.5700 O.2     1  UNL1       -0.2448
     15 O          62.7453   88.3749   11.1306 O.3     1  UNL1       -0.4454
     16 C          61.9832   87.0858   11.0448 C.3     1  UNL1        0.2087
     17 C          61.3789   86.6572    9.7405 C.3     1  UNL1        0.0445
     18 C          62.1679   85.8029    8.7931 C.3     1  UNL1        0.0210
     19 C          61.5636   85.3744    7.4888 C.3     1  UNL1        0.0722
     20 N          60.1702   85.8000    7.1321 N.3     1  UNL1       -0.2727
     21 C          59.3811   86.6542    8.0795 C.3     1  UNL1        0.0722
     22 C          59.9855   87.0828    9.3838 C.3     1  UNL1        0.0210
     23 C          60.4589   86.0596    7.8581 C.3     1  UNL1        0.0722
     24 C          61.0053   86.4472    9.0374 C.3     1  UNL1        0.0210
@<TRIPOS>BOND
     1    11    12    1
     2    12     1    1
     3     1     2    2
     4     2     3    1
     5     3     4    1
     6     3     5    2
     7     5     6    1
     8     6    13    1
     9    13    14    2
    10    13    15    1
    11    15    16    1
    12    16    17    1
    13    17    18    1
    14    18    19    1
    15    19    20    1
    16    20    21    1
    17    21    22    1
    18    20    23    1
    19    23    24    1
    20     6     7    2
    21     7     8    1
    22     8     9    2
    23     9    10    1
    24    10     1    1
    25     9     5    1
    26    22    17    1
    27    24    17    1
@<TRIPOS>MOLECULE
*****
 24 27 0 0 0
SMALL
GASTEIGER

@<TRIPOS>ATOM
      1 C          66.4511   92.3926   13.8569 C.2     1  UNL1        0.1230
      2 C          65.7875   91.2431   14.5556 C.2     1  UNL1        0.0442
      3 C          64.6707   90.5006   13.8836 C.2     1  UNL1        0.0617
      4 CL         64.0071   89.3511   14.5823 Cl      1  UNL1       -0.0821
      5 C          64.2175   90.9077   12.5129 C.2     1  UNL1        0.0324
      6 C          63.1504   90.3684   11.6072 C.2     1  UNL1        0.0966
      7 C          63.1544   91.1845   10.3487 C.2     1  UNL1        0.1049
      8 N          64.2240   92.2283   10.4766 N.2     1  UNL1       -0.2475
      9 C          64.8811   92.0573   11.8142 C.2     1  UNL1        0.0676
     10 C          65.9978   92.7997   12.4861 C.3     1  UNL1        0.1096
     11 C          67.6969   93.1039   16.0229 C.3     1  UNL1        0.2520
     12 O          67.5678   93.1351   14.5288 O.2     1  UNL1       -0.4753
     13 C          62.2392   89.2152   11.9073 C.2     1  UNL1        0.3428
     14 O          60.8107   89.4677   12.2890 O.2     1  UNL1       -0.2448
     15 O          62.7565   87.8096   11.8257 O.3     1  UNL1       -0.4454
     16 C          61.8298   86.6896   11.4557 C.3     1  UNL1        0.2087
     17 C          61.6252   86.3308   10.0137 C.3     1  UNL1        0.0445
     18 C          62.6931   85.5880    9.2668 C.3     1  UNL1        0.0210
     19 C          62.4885   85.2292    7.8248 C.3     1  UNL1        0.0722
     20 N          61.2159   85.6132    7.1297 N.3     1  UNL1       -0.2727
     21 C          60.1480   86.3560    7.8766 C.3     1  UNL1        0.0722
     22 C          60.3527   86.7148    9.3186 C.3     1  UNL1        0.0210
     23 C          61.2827   85.8316    7.9207 C.3     1  UNL1        0.0722
     24 C          61.4676   86.1561    9.2246 C.3     1  UNL1        0.0210
@<TRIPOS>BOND
     1    11    12    1
     2    12     1    1
     3     1     2    2
     4     2     3    1
     5     3     4    1
     6     3     5    2
     7     5     6    1
     8     6    13    1
     9    13    14    2
    10    13    15    1
    11    15    16    1
    12    16    17    1
    13    17    18    1
    14    18    19    1
    15    19    20    1
    16    20    21    1
    17    21    22    1
    18    20    23    1
    19    23    24    1
    20     6     7    2
    21     7     8    1
    22     8     9    2
    23     9    10    1
    24    10     1    1
    25     9     5    1
    26    22    17    1
    27    24    17    1
@<TRIPOS>MOLECULE
*****
 24 27 0 0 0
SMALL
GASTEIGER

@<TRIPOS>ATOM
      1 C          66.2480   92.4137   13.9838 C.2     1  UNL1        0.1230
      2 C          65.5807   91.2590   14.6703 C.2     1  UNL1        0.0442
      3 C          64.5169   90.4765   13.9588 C.2     1  UNL1        0.0617
      4 CL         63.8496   89.3218   14.6454 Cl      1  UNL1       -0.0821
      5 C          64.1206   90.8487   12.5609 C.2     1  UNL1        0.0324
      6 C          63.1127   90.2665   11.6147 C.2     1  UNL1        0.0966
      7 C          63.1571   91.0614   10.3434 C.2     1  UNL1        0.1049
      8 N          64.1925   92.1348   10.5039 N.2     1  UNL1       -0.2475
      9 C          64.7880   92.0034   11.8743 C.2     1  UNL1        0.0676
     10 C          65.8517   92.7859   12.5858 C.3     1  UNL1        0.1096
     11 C          67.8540   92.7059   16.0050 C.3     1  UNL1        0.2520
     12 O          67.3117   93.1962   14.6953 O.2     1  UNL1       -0.4753
     13 C          62.2175   89.0951   11.8913 C.2     1  UNL1        0.3428
     14 O          60.7549   89.3120   12.1435 O.2     1  UNL1       -0.2448
     15 O          62.7850   87.7069   11.9157 O.3     1  UNL1       -0.4454
     16 C          62.0947   86.6012   11.1734 C.3     1  UNL1        0.2087
     17 C          62.6471   85.2074   11.2201 C.3     1  UNL1        0.0445
     18 C          62.5869   84.4191   12.4949 C.3     1  UNL1        0.0210
     19 C          63.1393   83.0254   12.5416 C.3     1  UNL1        0.0722
     20 N          63.7519   82.4199   11.3135 N.3     1  UNL1       -0.2727
     21 C          63.8121   83.2081   10.0388 C.3     1  UNL1        0.0722
     22 C          63.2597   84.6019    9.9921 C.3     1  UNL1        0.0210
     23 C          63.4623   83.1870   11.2394 C.3     1  UNL1        0.0722
     24 C          62.9628   84.4473   11.1971 C.3     1  UNL1        0.0210
@<TRIPOS>BOND
     1    11    12    1
     2    12     1    1
     3     1     2    2
     4     2     3    1
     5     3     4    1
     6     3     5    2
     7     5     6    1
     8     6    13    1
     9    13    14    2
    10    13    15    1
    11    15    16    1
    12    16    17    1
    13    17    18    1
    14    18    19    1
    15    19    20    1
    16    20    21    1
    17    21    22    1
    18    20    23    1
    19    23    24    1
    20     6     7    2
    21     7     8    1
    22     8     9    2
    23     9    10    1
    24    10     1    1
    25     9     5    1
    26    22    17    1
    27    24    17    1
@<TRIPOS>MOLECULE
*****
 24 27 0 0 0
SMALL
GASTEIGER

@<TRIPOS>ATOM
      1 C          66.3770   92.9566   11.4560 C.2     1  UNL1        0.1230
      2 C          66.7303   92.7136   12.8934 C.2     1  UNL1        0.0442
      3 C          65.8407   91.8630   13.7509 C.2     1  UNL1        0.0617
      4 CL         66.1939   91.6200   15.1883 Cl      1  UNL1       -0.0821
      5 C          64.5980   91.2553   13.1709 C.2     1  UNL1        0.0324
      6 C          63.5364   90.3795   13.7674 C.2     1  UNL1        0.0966
      7 C          62.5270   90.0811   12.6987 C.2     1  UNL1        0.1049
      8 N          62.9648   90.7726   11.4416 N.2     1  UNL1       -0.2475
      9 C          64.2448   91.4983   11.7335 C.2     1  UNL1        0.0676
     10 C          65.1343   92.3489   10.8760 C.3     1  UNL1        0.1096
     11 C          67.9791   93.2020    9.4255 C.3     1  UNL1        0.2520
     12 O          67.2665   93.8072   10.5985 O.2     1  UNL1       -0.4753
     13 C          63.4919   89.8883   15.1840 C.2     1  UNL1        0.3428
     14 O          63.2838   90.8592   16.3083 O.2     1  UNL1       -0.2448
     15 O          63.6555   88.4262   15.4763 O.3     1  UNL1       -0.4454
     16 C          64.5071   87.5734   14.5832 C.3     1  UNL1        0.2087
     17 C          64.1141   86.1528   14.3052 C.3     1  UNL1        0.0445
     18 C          63.3740   85.8120   13.0458 C.3     1  UNL1        0.0210
     19 C          62.9810   84.3914   12.7680 C.3     1  UNL1        0.0722
     20 N          63.3281   83.3114   13.7494 N.3     1  UNL1       -0.2727
     21 C          64.0682   83.6522   15.0088 C.3     1  UNL1        0.0722
     22 C          64.4612   85.0729   15.2867 C.3     1  UNL1        0.0210
     23 C          63.5645   84.0754   13.9451 C.3     1  UNL1        0.0722
     24 C          63.9199   85.3600   14.1965 C.3     1  UNL1        0.0210
@<TRIPOS>BOND
     1    11    12    1
     2    12     1    1
     3     1     2    2
     4     2     3    1
     5     3     4    1
     6     3     5    2
     7     5     6    1
     8     6    13    1
     9    13    14    2
    10    13    15    1
    11    15    16    1
    12    16    17    1
    13    17    18    1
    14    18    19    1
    15    19    20    1
    16    20    21    1
    17    21    22    1
    18    20    23    1
    19    23    24    1
    20     6     7    2
    21     7     8    1
    22     8     9    2
    23     9    10    1
    24    10     1    1
    25     9     5    1
    26    22    17    1
    27    24    17    1
@<TRIPOS>MOLECULE
*****
 24 27 0 0 0
SMALL
GASTEIGER

@<TRIPOS>ATOM
      1 C          66.6692   92.5898   13.8571 C.2     1  UNL1        0.1230
      2 C          66.0424   92.8716   12.5237 C.2     1  UNL1        0.0442
      3 C          64.9168   92.0131   12.0277 C.2     1  UNL1        0.0617
      4 CL         64.2901   92.2948   10.6943 Cl      1  UNL1       -0.0821
      5 C          64.4179   90.8729   12.8650 C.2     1  UNL1        0.0324
      6 C          63.3323   89.8625   12.6403 C.2     1  UNL1        0.0966
      7 C          63.2880   88.9563   13.8348 C.2     1  UNL1        0.1049
      8 N          64.3463   89.4066   14.7977 N.2     1  UNL1       -0.2475
      9 C          65.0447   90.5912   14.1983 C.2     1  UNL1        0.0676
     10 C          66.1703   91.4496   14.6944 C.3     1  UNL1        0.1096
     11 C          68.5672   93.0410   15.5727 C.3     1  UNL1        0.2520
     12 O          67.7948   93.4482   14.3531 O.2     1  UNL1       -0.4753
     13 C          62.4464   89.7739   11.4331 C.2     1  UNL1        0.3428
     14 O          61.2798   90.7057   11.2889 O.2     1  UNL1       -0.2448
     15 O          62.7272   88.7536   10.3701 O.3     1  UNL1       -0.4454
     16 C          62.1710   87.3662   10.4964 C.3     1  UNL1        0.2087
     17 C          61.7440   86.6149    9.2704 C.3     1  UNL1        0.0445
     18 C          60.3403   86.7497    8.7590 C.3     1  UNL1        0.0210
     19 C          59.9134   85.9984    7.5330 C.3     1  UNL1        0.0722
     20 N          60.8901   85.1121    6.8184 N.3     1  UNL1       -0.2727
     21 C          62.2937   84.9773    7.3298 C.3     1  UNL1        0.0722
     22 C          62.7207   85.7287    8.5558 C.3     1  UNL1        0.0210
     23 C          61.1701   85.5040    7.4861 C.3     1  UNL1        0.0722
     24 C          61.5563   86.1833    8.5947 C.3     1  UNL1        0.0210
@<TRIPOS>BOND
     1    11    12    1
     2    12     1    1
     3     1     2    2
     4     2     3    1
     5     3     4    1
     6     3     5    2
     7     5     6    1
     8     6    13    1
     9    13    14    2
    10    13    15    1
    11    15    16    1
    12    16    17    1
    13    17    18    1
    14    18    19    1
    15    19    20    1
    16    20    21    1
    17    21    22    1
    18    20    23    1
    19    23    24    1
    20     6     7    2
    21     7     8    1
    22     8     9    2
    23     9    10    1
    24    10     1    1
    25     9     5    1
    26    22    17    1
    27    24    17    1
@<TRIPOS>MOLECULE
*****
 24 27 0 0 0
SMALL
GASTEIGER

@<TRIPOS>ATOM
      1 C          61.6749   86.8958   10.3206 C.2     1  UNL1        0.1230
      2 C          61.7065   88.3679   10.0341 C.2     1  UNL1        0.0442
      3 C          62.4186   89.2990   10.9701 C.2     1  UNL1        0.0617
      4 CL         62.4502   90.7711   10.6837 Cl      1  UNL1       -0.0821
      5 C          63.0991   88.7580   12.1925 C.2     1  UNL1        0.0324
      6 C          63.8736   89.4271   13.2891 C.2     1  UNL1        0.0966
      7 C          64.3206   88.3686   14.2533 C.2     1  UNL1        0.1049
      8 N          63.8225   87.0453   13.7525 N.2     1  UNL1       -0.2475
      9 C          63.0676   87.2859   12.4789 C.2     1  UNL1        0.0676
     10 C          62.3555   86.3549   11.5430 C.3     1  UNL1        0.1096
     11 C          60.5051   86.4552    8.0431 C.3     1  UNL1        0.2520
     12 O          60.9628   85.9648    9.3846 O.2     1  UNL1       -0.4753
     13 C          64.1520   90.8967   13.4018 C.2     1  UNL1        0.3428
     14 O          63.8937   91.6121   14.6946 O.2     1  UNL1       -0.2448
     15 O          64.6888   91.6509   12.2215 O.3     1  UNL1       -0.4454
     16 C          66.0120   92.3510   12.3174 C.3     1  UNL1        0.2087
     17 C          66.7055   92.8178   11.0719 C.3     1  UNL1        0.0445
     18 C          67.8113   91.9974   10.4768 C.3     1  UNL1        0.0210
     19 C          68.5047   92.4643    9.2314 C.3     1  UNL1        0.0722
     20 N          68.0923   93.7515    8.5810 N.3     1  UNL1       -0.2727
     21 C          66.9865   94.5719    9.1761 C.3     1  UNL1        0.0722
     22 C          66.2931   94.1050   10.4216 C.3     1  UNL1        0.0210
     23 C          67.6830   93.5366    9.2623 C.3     1  UNL1        0.0722
     24 C          67.0559   93.1146   10.3885 C.3     1  UNL1        0.0210
@<TRIPOS>BOND
     1    11    12    1
     2    12     1    1
     3     1     2    2
     4     2     3    1
     5     3     4    1
     6     3     5    2
     7     5     6    1
     8     6    13    1
     9    13    14    2
    10    13    15    1
    11    15    16    1
    12    16    17    1
    13    17    18    1
    14    18    19    1
    15    19    20    1
    16    20    21    1
    17    21    22    1
    18    20    23    1
    19    23    24    1
    20     6     7    2
    21     7     8    1
    22     8     9    2
    23     9    10    1
    24    10     1    1
    25     9     5    1
    26    22    17    1
    27    24    17    1
@<TRIPOS>MOLECULE
*****
 24 27 0 0 0
SMALL
GASTEIGER

@<TRIPOS>ATOM
      1 C          61.9665   89.0560   10.2883 C.2     1  UNL1        0.1230
      2 C          61.9756   87.5742   10.5212 C.2     1  UNL1        0.0442
      3 C          62.6354   87.0115   11.7452 C.2     1  UNL1        0.0617
      4 CL         62.6445   85.5297   11.9781 Cl      1  UNL1       -0.0821
      5 C          63.2859   87.9305   12.7362 C.2     1  UNL1        0.0324
      6 C          64.0082   87.6682   14.0244 C.2     1  UNL1        0.0966
      7 C          64.4455   88.9879   14.5877 C.2     1  UNL1        0.1049
      8 N          63.9934   90.0657   13.6476 N.2     1  UNL1       -0.2475
      9 C          63.2768   89.4123   12.5033 C.2     1  UNL1        0.0676
     10 C          62.6171   89.9750   11.2794 C.3     1  UNL1        0.1096
     11 C          60.0143   89.0365    8.5742 C.3     1  UNL1        0.2520
     12 O          61.3068   89.6188    9.0644 O.2     1  UNL1       -0.4753
     13 C          64.2507   86.3225   14.6411 C.2     1  UNL1        0.3428
     14 O          65.6477   85.7867   14.7469 O.2     1  UNL1       -0.2448
     15 O          63.0961   85.5126   15.1520 O.3     1  UNL1       -0.4454
     16 C          63.2950   84.0722   15.5206 C.3     1  UNL1        0.2087
     17 C          63.1349   83.0030   14.4809 C.3     1  UNL1        0.0445
     18 C          64.1854   82.8190   13.4261 C.3     1  UNL1        0.0210
     19 C          64.0251   81.7497   12.3865 C.3     1  UNL1        0.0722
     20 N          62.8143   80.8644   12.4015 N.3     1  UNL1       -0.2727
     21 C          61.7638   81.0484   13.4563 C.3     1  UNL1        0.0722
     22 C          61.9241   82.1177   14.4960 C.3     1  UNL1        0.0210
     23 C          62.8583   81.4367   12.9919 C.3     1  UNL1        0.0722
     24 C          63.0031   82.4035   13.9320 C.3     1  UNL1        0.0210
@<TRIPOS>BOND
     1    11    12    1
     2    12     1    1
     3     1     2    2
     4     2     3    1
     5     3     4    1
     6     3     5    2
     7     5     6    1
     8     6    13    1
     9    13    14    2
    10    13    15    1
    11    15    16    1
    12    16    17    1
    13    17    18    1
    14    18    19    1
    15    19    20    1
    16    20    21    1
    17    21    22    1
    18    20    23    1
    19    23    24    1
    20     6     7    2
    21     7     8    1
    22     8     9    2
    23     9    10    1
    24    10     1    1
    25     9     5    1
    26    22    17    1
    27    24    17    1
@<TRIPOS>MOLECULE
*****
 24 27 0 0 0
SMALL
GASTEIGER

@<TRIPOS>ATOM
      1 C          62.7840   84.9160   12.1041 C.2     1  UNL1        0.1230
      2 C          62.2462   85.7117   10.9518 C.2     1  UNL1        0.0442
      3 C          62.3672   87.2069   10.9516 C.2     1  UNL1        0.0617
      4 CL         61.8294   88.0027    9.7994 Cl      1  UNL1       -0.0821
      5 C          63.0258   87.9062   12.1036 C.2     1  UNL1        0.0324
      6 C          63.2878   89.3571   12.3799 C.2     1  UNL1        0.0966
      7 C          63.9874   89.4581   13.7029 C.2     1  UNL1        0.1049
      8 N          64.1578   88.0696   14.2442 N.2     1  UNL1       -0.2475
      9 C          63.5636   87.1105   13.2558 C.2     1  UNL1        0.0676
     10 C          63.4427   85.6154   13.2561 C.3     1  UNL1        0.1096
     11 C          63.7480   82.5806   11.4989 C.3     1  UNL1        0.2520
     12 O          62.6630   83.4209   12.1043 O.2     1  UNL1       -0.4753
     13 C          62.9154   90.5054   11.4896 C.2     1  UNL1        0.3428
     14 O          61.4745   90.8860   11.3194 O.2     1  UNL1       -0.2448
     15 O          63.9840   91.2732   10.7694 O.3     1  UNL1       -0.4454
     16 C          64.9117   92.1676   11.5371 C.3     1  UNL1        0.2087
     17 C          65.9630   92.9559   10.8137 C.3     1  UNL1        0.0445
     18 C          65.8386   94.4465   10.7020 C.3     1  UNL1        0.0210
     19 C          66.8899   95.2348    9.9786 C.3     1  UNL1        0.0722
     20 N          68.0657   94.5323    9.3668 N.3     1  UNL1       -0.2727
     21 C          68.1901   93.0417    9.4785 C.3     1  UNL1        0.0722
     22 C          67.1388   92.2535   10.2019 C.3     1  UNL1        0.0210
     23 C          67.5149   94.0580    9.7535 C.3     1  UNL1        0.0722
     24 C          66.5643   93.3451   10.4076 C.3     1  UNL1        0.0210
@<TRIPOS>BOND
     1    11    12    1
     2    12     1    1
     3     1     2    2
     4     2     3    1
     5     3     4    1
     6     3     5    2
     7     5     6    1
     8     6    13    1
     9    13    14    2
    10    13    15    1
    11    15    16    1
    12    16    17    1
    13    17    18    1
    14    18    19    1
    15    19    20    1
    16    20    21    1
    17    21    22    1
    18    20    23    1
    19    23    24    1
    20     6     7    2
    21     7     8    1
    22     8     9    2
    23     9    10    1
    24    10     1    1
    25     9     5    1
    26    22    17    1
    27    24    17    1
@<TRIPOS>MOLECULE
*****
 24 27 0 0 0
SMALL
GASTEIGER

@<TRIPOS>ATOM
      1 C          62.7541   85.9697   11.9514 C.2     1  UNL1        0.1230
      2 C          63.4804   86.4836   13.1590 C.2     1  UNL1        0.0442
      3 C          63.6916   87.9582   13.3360 C.2     1  UNL1        0.0617
      4 CL         64.4179   88.4721   14.5437 Cl      1  UNL1       -0.0821
      5 C          63.1765   88.9187   12.3055 C.2     1  UNL1        0.0324
      6 C          63.2340   90.4145   12.2100 C.2     1  UNL1        0.0966
      7 C          62.5433   90.8251   10.9434 C.2     1  UNL1        0.1049
      8 N          62.0589   89.5830   10.2561 N.2     1  UNL1       -0.2475
      9 C          62.4502   88.4047   11.0979 C.2     1  UNL1        0.0676
     10 C          62.2390   86.9303   10.9208 C.3     1  UNL1        0.1096
     11 C          62.8432   83.5538   12.9027 C.3     1  UNL1        0.2520
     12 O          62.5430   84.4953   11.7743 O.2     1  UNL1       -0.4753
     13 C          63.8705   91.3377   13.2063 C.2     1  UNL1        0.3428
     14 O          63.5613   91.1933   14.6669 O.2     1  UNL1       -0.2448
     15 O          64.8163   92.4054   12.7419 O.3     1  UNL1       -0.4454
     16 C          66.1814   92.0333   12.2437 C.3     1  UNL1        0.2087
     17 C          66.7642   92.7390   11.0554 C.3     1  UNL1        0.0445
     18 C          66.2884   94.1144   10.6921 C.3     1  UNL1        0.0210
     19 C          66.8713   94.8201    9.5038 C.3     1  UNL1        0.0722
     20 N          67.9300   94.1504    8.6787 N.3     1  UNL1       -0.2727
     21 C          68.4058   92.7751    9.0420 C.3     1  UNL1        0.0722
     22 C          67.8229   92.0694   10.2303 C.3     1  UNL1        0.0210
     23 C          67.6404   93.7241    9.3208 C.3     1  UNL1        0.0722
     24 C          67.1134   93.0859   10.3953 C.3     1  UNL1        0.0210
@<TRIPOS>BOND
     1    11    12    1
     2    12     1    1
     3     1     2    2
     4     2     3    1
     5     3     4    1
     6     3     5    2
     7     5     6    1
     8     6    13    1
     9    13    14    2
    10    13    15    1
    11    15    16    1
    12    16    17    1
    13    17    18    1
    14    18    19    1
    15    19    20    1
    16    20    21    1
    17    21    22    1
    18    20    23    1
    19    23    24    1
    20     6     7    2
    21     7     8    1
    22     8     9    2
    23     9    10    1
    24    10     1    1
    25     9     5    1
    26    22    17    1
    27    24    17    1
