@<TRIPOS>MOLECULE
*****
 32 34 0 0 0
SMALL
GASTEIGER

@<TRIPOS>ATOM
      1 S          63.9904   89.5597   15.4876 S.O2    1  UNL1        0.0455
      2 O          65.2319   89.4138   14.6586 O.2     1  UNL1       -0.1572
      3 O          62.7489   89.7057   16.3167 O.2     1  UNL1       -0.1572
      4 C          63.4356   85.0943   15.4429 C.3     1  UNL1        0.0032
      5 C          62.9403   85.8999   16.6071 C.3     1  UNL1        0.0192
      6 C          63.1252   87.3884   16.6220 C.3     1  UNL1        0.0954
      7 N          63.8055   88.0712   15.4727 N.3     1  UNL1       -0.1594
      8 C          64.3008   87.2656   14.3084 C.3     1  UNL1        0.0954
      9 C          64.1158   85.7771   14.2935 C.3     1  UNL1        0.0192
     10 C          63.2506   83.6058   15.4279 C.3     1  UNL1        0.0049
     11 C          62.1838   82.9911   14.5712 C.3     1  UNL1        0.0305
     12 C          62.5413   84.7105   11.8207 C.3     1  UNL1        0.0553
     13 C          62.6972   83.2250   11.9583 C.ar    1  UNL1        0.0966
     14 N          63.0447   82.2690   10.8560 N.ar    1  UNL1       -0.0821
     15 O          63.0951   80.8878   11.4389 O.2     1  UNL1       -0.3584
     16 C          62.7788   80.9902   12.9017 C.ar    1  UNL1        0.1504
     17 C          62.7189   79.8486   13.8728 C.3     1  UNL1        0.0750
     18 C          62.5328   82.4347   13.2226 C.ar    1  UNL1        0.0274
     19 C          64.1754   91.0482   15.5026 C.3     1  UNL1        0.1896
     20 C          64.8728   91.7288   14.3622 C.3     1  UNL1        0.1133
     21 C          63.7483   91.0671   13.6222 C.3     1  UNL1        0.0478
     22 C          63.6277   91.2338   12.1363 C.3     1  UNL1        0.1526
     23 S          64.6316   92.0621   11.3907 S.O2    1  UNL1       -0.0099
     24 O          65.3291   92.7427   10.2503 O.2     1  UNL1       -0.1730
     25 O          63.7493   91.6368   10.2545 O.2     1  UNL1       -0.1730
     26 C          65.7561   92.7237   12.1307 C.3     1  UNL1        0.1526
     27 C          65.8767   92.5570   13.6165 C.3     1  UNL1        0.0478
     28 N          65.7551   92.1540   15.4984 N.am    1  UNL1       -0.1661
     29 O          65.1527   92.7721   16.7252 O.3     1  UNL1       -0.2915
     30 C          67.2399   91.9611   15.4077 C.2     1  UNL1        0.3268
     31 O          68.1222   92.3864   16.5438 O.2     1  UNL1       -0.2627
     32 H          64.1896   92.8235   16.6217 H       1  UNL1        0.2417
@<TRIPOS>BOND
     1    12    13    1
     2    13    14   ar
     3    14    15   ar
     4    15    16   ar
     5    16    17    1
     6    16    18   ar
     7    18    11    1
     8    11    10    1
     9    10     4    1
    10     4     5    1
    11     5     6    1
    12     6     7    1
    13     7     1    1
    14     1     2    2
    15     1     3    2
    16     1    19    1
    17    19    20    1
    18    20    28    1
    19    28    29    1
    20    28    30   am
    21    30    31    2
    22    20    21    1
    23    21    22    1
    24    22    23    1
    25    23    24    2
    26    23    25    2
    27    23    26    1
    28    26    27    1
    29     7     8    1
    30     8     9    1
    31    18    13   ar
    32     9     4    1
    33    27    20    1
    34    29    32    1
@<TRIPOS>MOLECULE
*****
 32 34 0 0 0
SMALL
GASTEIGER

@<TRIPOS>ATOM
      1 S          62.0270   88.3896   10.9242 S.O2    1  UNL1        0.0455
      2 O          62.9342   88.0657    9.7745 O.2     1  UNL1       -0.1572
      3 O          61.1197   88.7135   12.0740 O.2     1  UNL1       -0.1572
      4 C          64.5592   91.9760   11.9119 C.3     1  UNL1        0.0032
      5 C          64.2945   90.9338   12.9578 C.3     1  UNL1        0.0192
      6 C          63.4504   89.7384   12.6285 C.3     1  UNL1        0.0954
      7 N          62.8711   89.5851   11.2534 N.3     1  UNL1       -0.1594
      8 C          63.1358   90.6273   10.2076 C.3     1  UNL1        0.0954
      9 C          63.9799   91.8227   10.5368 C.3     1  UNL1        0.0192
     10 C          65.4034   93.1715   12.2412 C.3     1  UNL1        0.0049
     11 C          66.8025   93.2711   11.7096 C.3     1  UNL1        0.0305
     12 C          65.9682   96.3968   11.2814 C.3     1  UNL1        0.0553
     13 C          66.7014   95.5369   10.2950 C.ar    1  UNL1        0.0966
     14 N          67.1799   95.9628    8.9387 N.ar    1  UNL1       -0.0821
     15 O          67.8592   94.7892    8.2972 O.2     1  UNL1       -0.3584
     16 C          67.8004   93.6380    9.2572 C.ar    1  UNL1        0.1504
     17 C          68.3591   92.2657    9.0234 C.3     1  UNL1        0.0750
     18 C          67.0849   94.1002   10.4918 C.ar    1  UNL1        0.0274
     19 C          61.1829   87.1942   10.5950 C.3     1  UNL1        0.1896
     20 C          61.8258   85.8532   10.3991 C.3     1  UNL1        0.1133
     21 C          62.1873   86.1086   11.8323 C.3     1  UNL1        0.0478
     22 C          62.9886   85.0959   12.5956 C.3     1  UNL1        0.1526
     23 S          63.4284   83.8280   11.9255 S.O2    1  UNL1       -0.0099
     24 O          64.0712   82.4869   11.7297 O.2     1  UNL1       -0.1730
     25 O          64.0132   83.6176   13.2908 O.2     1  UNL1       -0.1730
     26 C          63.0668   83.5726   10.4923 C.3     1  UNL1        0.1526
     27 C          62.2655   84.5852    9.7292 C.3     1  UNL1        0.0478
     28 N          61.2410   86.0636    9.0339 N.am    1  UNL1       -0.1661
     29 O          62.0366   85.7056    7.8138 O.3     1  UNL1       -0.2915
     30 C          59.8604   86.6319    8.8889 C.2     1  UNL1        0.3268
     31 O          59.2755   86.8423    7.5237 O.2     1  UNL1       -0.2627
     32 H          62.9000   85.3544    8.0823 H       1  UNL1        0.2417
@<TRIPOS>BOND
     1    12    13    1
     2    13    14   ar
     3    14    15   ar
     4    15    16   ar
     5    16    17    1
     6    16    18   ar
     7    18    11    1
     8    11    10    1
     9    10     4    1
    10     4     5    1
    11     5     6    1
    12     6     7    1
    13     7     1    1
    14     1     2    2
    15     1     3    2
    16     1    19    1
    17    19    20    1
    18    20    28    1
    19    28    29    1
    20    28    30   am
    21    30    31    2
    22    20    21    1
    23    21    22    1
    24    22    23    1
    25    23    24    2
    26    23    25    2
    27    23    26    1
    28    26    27    1
    29     7     8    1
    30     8     9    1
    31    18    13   ar
    32     9     4    1
    33    27    20    1
    34    29    32    1
@<TRIPOS>MOLECULE
*****
 32 34 0 0 0
SMALL
GASTEIGER

@<TRIPOS>ATOM
      1 S          62.0358   88.3848   10.9249 S.O2    1  UNL1        0.0455
      2 O          62.9411   88.0731    9.7702 O.2     1  UNL1       -0.1572
      3 O          61.1305   88.6964   12.0795 O.2     1  UNL1       -0.1572
      4 C          64.5624   91.9679   11.9384 C.3     1  UNL1        0.0032
      5 C          63.9991   91.8141   10.5568 C.3     1  UNL1        0.0192
      6 C          63.1569   90.6197   10.2190 C.3     1  UNL1        0.0954
      7 N          62.8780   89.5792   11.2628 N.3     1  UNL1       -0.1594
      8 C          63.4413   89.7330   12.6444 C.3     1  UNL1        0.0954
      9 C          64.2835   90.9274   12.9822 C.3     1  UNL1        0.0192
     10 C          65.4046   93.1623   12.2763 C.3     1  UNL1        0.0049
     11 C          66.8022   93.2698   11.7422 C.3     1  UNL1        0.0305
     12 C          68.3482   92.2519    9.0547 C.3     1  UNL1        0.0553
     13 C          67.7866   93.6240    9.2824 C.ar    1  UNL1        0.0966
     14 N          67.8370   94.7691    8.3148 N.ar    1  UNL1       -0.0821
     15 O          67.1574   95.9448    8.9521 O.2     1  UNL1       -0.3584
     16 C          66.6871   95.5262   10.3137 C.ar    1  UNL1        0.1504
     17 C          65.9562   96.3902   11.2982 C.3     1  UNL1        0.0750
     18 C          67.0759   94.0919   10.5177 C.ar    1  UNL1        0.0274
     19 C          61.1936   87.1904   10.5870 C.3     1  UNL1        0.1896
     20 C          61.8373   85.8496   10.3924 C.3     1  UNL1        0.1133
     21 C          62.2027   86.1087   11.8239 C.3     1  UNL1        0.0478
     22 C          63.0074   85.0987   12.5872 C.3     1  UNL1        0.1526
     23 S          63.4465   83.8297   11.9189 S.O2    1  UNL1       -0.0099
     24 O          64.0902   82.4889   11.7243 O.2     1  UNL1       -0.1730
     25 O          64.0355   83.6231   13.2829 O.2     1  UNL1       -0.1730
     26 C          63.0811   83.5706   10.4873 C.3     1  UNL1        0.1526
     27 C          62.2765   84.5806    9.7242 C.3     1  UNL1        0.0478
     28 N          61.2484   86.0562    9.0284 N.am    1  UNL1       -0.1661
     29 O          62.0424   85.7001    7.8067 O.3     1  UNL1       -0.2915
     30 C          59.8652   86.6190    8.8862 C.2     1  UNL1        0.3268
     31 O          59.2762   86.8256    7.5222 O.2     1  UNL1       -0.2627
     32 H          62.9078   85.3525    8.0735 H       1  UNL1        0.2417
@<TRIPOS>BOND
     1    12    13    1
     2    13    14   ar
     3    14    15   ar
     4    15    16   ar
     5    16    17    1
     6    16    18   ar
     7    18    11    1
     8    11    10    1
     9    10     4    1
    10     4     5    1
    11     5     6    1
    12     6     7    1
    13     7     1    1
    14     1     2    2
    15     1     3    2
    16     1    19    1
    17    19    20    1
    18    20    28    1
    19    28    29    1
    20    28    30   am
    21    30    31    2
    22    20    21    1
    23    21    22    1
    24    22    23    1
    25    23    24    2
    26    23    25    2
    27    23    26    1
    28    26    27    1
    29     7     8    1
    30     8     9    1
    31    18    13   ar
    32     9     4    1
    33    27    20    1
    34    29    32    1
@<TRIPOS>MOLECULE
*****
 32 34 0 0 0
SMALL
GASTEIGER

@<TRIPOS>ATOM
      1 S          62.8226   86.5332   12.0488 S.O2    1  UNL1        0.0455
      2 O          61.7037   87.3584   11.4858 O.2     1  UNL1       -0.1572
      3 O          63.9415   85.7080   12.6118 O.2     1  UNL1       -0.1572
      4 C          64.3152   90.1137   14.3296 C.3     1  UNL1        0.0032
      5 C          63.5806   90.3018   13.0354 C.3     1  UNL1        0.0192
      6 C          63.0831   89.1083   12.2752 C.3     1  UNL1        0.0954
      7 N          63.3202   87.7268   12.8091 N.3     1  UNL1       -0.1594
      8 C          64.0548   87.5387   14.1033 C.3     1  UNL1        0.0954
      9 C          64.5523   88.7321   14.8635 C.3     1  UNL1        0.0192
     10 C          64.8128   91.3072   15.0899 C.3     1  UNL1        0.0049
     11 C          65.4234   92.4635   14.3550 C.3     1  UNL1        0.0305
     12 C          65.7185   92.4490   11.1051 C.3     1  UNL1        0.0553
     13 C          66.8332   92.2682   12.0923 C.ar    1  UNL1        0.0966
     14 N          68.2792   92.0491   11.7591 N.ar    1  UNL1       -0.0821
     15 O          69.0373   91.9204   13.0470 O.2     1  UNL1       -0.3584
     16 C          68.0598   92.0599   14.1763 C.ar    1  UNL1        0.1504
     17 C          68.3870   91.9957   15.6387 C.3     1  UNL1        0.0750
     18 C          66.6976   92.2749   13.5861 C.ar    1  UNL1        0.0274
     19 C          62.3250   85.3398   11.2885 C.3     1  UNL1        0.1896
     20 C          62.8615   83.9744   11.6010 C.3     1  UNL1        0.1133
     21 C          62.1683   84.2843   12.8946 C.3     1  UNL1        0.0478
     22 C          62.1877   83.2858   14.0139 C.3     1  UNL1        0.1526
     23 S          62.9002   81.9774   13.8394 S.O2    1  UNL1       -0.0099
     24 O          63.4367   80.6119   14.1519 O.2     1  UNL1       -0.1730
     25 O          62.3933   81.8130   15.2416 O.2     1  UNL1       -0.1730
     26 C          63.5934   81.6675   12.5458 C.3     1  UNL1        0.1526
     27 C          63.5740   82.6660   11.4266 C.3     1  UNL1        0.0478
     28 N          63.3683   84.1387   10.1988 N.am    1  UNL1       -0.1661
     29 O          64.5741   83.3721    9.7424 O.3     1  UNL1       -0.2915
     30 C          62.6693   85.0698    9.2530 C.2     1  UNL1        0.3268
     31 O          63.1761   85.2341    7.8508 O.2     1  UNL1       -0.2627
     32 H          64.9017   82.8212   10.4705 H       1  UNL1        0.2417
@<TRIPOS>BOND
     1    12    13    1
     2    13    14   ar
     3    14    15   ar
     4    15    16   ar
     5    16    17    1
     6    16    18   ar
     7    18    11    1
     8    11    10    1
     9    10     4    1
    10     4     5    1
    11     5     6    1
    12     6     7    1
    13     7     1    1
    14     1     2    2
    15     1     3    2
    16     1    19    1
    17    19    20    1
    18    20    28    1
    19    28    29    1
    20    28    30   am
    21    30    31    2
    22    20    21    1
    23    21    22    1
    24    22    23    1
    25    23    24    2
    26    23    25    2
    27    23    26    1
    28    26    27    1
    29     7     8    1
    30     8     9    1
    31    18    13   ar
    32     9     4    1
    33    27    20    1
    34    29    32    1
@<TRIPOS>MOLECULE
*****
 32 34 0 0 0
SMALL
GASTEIGER

@<TRIPOS>ATOM
      1 S          62.8478   86.6859   12.0313 S.O2    1  UNL1        0.0455
      2 O          62.7321   87.4895   10.7701 O.2     1  UNL1       -0.1572
      3 O          62.9635   85.8822   13.2925 O.2     1  UNL1       -0.1572
      4 C          64.3548   90.3231   14.2105 C.3     1  UNL1        0.0032
      5 C          63.6180   90.4778   12.9132 C.3     1  UNL1        0.0192
      6 C          63.1157   89.2654   12.1868 C.3     1  UNL1        0.0954
      7 N          63.3502   87.8983   12.7577 N.3     1  UNL1       -0.1594
      8 C          64.0869   87.7436   14.0551 C.3     1  UNL1        0.0954
      9 C          64.5893   88.9560   14.7815 C.3     1  UNL1        0.0192
     10 C          64.8572   91.5356   14.9370 C.3     1  UNL1        0.0049
     11 C          65.5360   92.6370   14.1780 C.3     1  UNL1        0.0305
     12 C          65.8650   92.5469   10.9326 C.3     1  UNL1        0.0553
     13 C          66.9561   92.3180   11.9360 C.ar    1  UNL1        0.0966
     14 N          68.3901   92.0075   11.6239 N.ar    1  UNL1       -0.0821
     15 O          69.1251   91.8570   12.9228 O.2     1  UNL1       -0.3584
     16 C          68.1453   92.0745   14.0377 C.ar    1  UNL1        0.1504
     17 C          68.4523   92.0171   15.5049 C.3     1  UNL1        0.0750
     18 C          66.8049   92.3594   13.4278 C.ar    1  UNL1        0.0274
     19 C          62.3454   85.4735   11.3048 C.3     1  UNL1        0.1896
     20 C          61.8816   85.5897    9.8831 C.3     1  UNL1        0.1133
     21 C          60.8442   86.4314   10.5652 C.3     1  UNL1        0.0478
     22 C          59.7591   87.0830    9.7601 C.3     1  UNL1        0.1526
     23 S          59.7115   86.8928    8.2730 S.O2    1  UNL1       -0.0099
     24 O          59.2477   87.0090    6.8512 O.2     1  UNL1       -0.1730
     25 O          58.5129   87.7750    8.4613 O.2     1  UNL1       -0.1730
     26 C          60.7489   86.0511    7.5909 C.3     1  UNL1        0.1526
     27 C          61.8339   85.3996    8.3960 C.3     1  UNL1        0.0478
     28 N          63.0801   84.7076    9.6948 N.am    1  UNL1       -0.1661
     29 O          63.8945   84.8067    8.4390 O.3     1  UNL1       -0.2915
     30 C          63.4643   83.7264   10.7623 C.2     1  UNL1        0.3268
     31 O          64.6628   82.8443   10.5741 O.2     1  UNL1       -0.2627
     32 H          63.5129   85.4839    7.8588 H       1  UNL1        0.2417
@<TRIPOS>BOND
     1    12    13    1
     2    13    14   ar
     3    14    15   ar
     4    15    16   ar
     5    16    17    1
     6    16    18   ar
     7    18    11    1
     8    11    10    1
     9    10     4    1
    10     4     5    1
    11     5     6    1
    12     6     7    1
    13     7     1    1
    14     1     2    2
    15     1     3    2
    16     1    19    1
    17    19    20    1
    18    20    28    1
    19    28    29    1
    20    28    30   am
    21    30    31    2
    22    20    21    1
    23    21    22    1
    24    22    23    1
    25    23    24    2
    26    23    25    2
    27    23    26    1
    28    26    27    1
    29     7     8    1
    30     8     9    1
    31    18    13   ar
    32     9     4    1
    33    27    20    1
    34    29    32    1
@<TRIPOS>MOLECULE
*****
 32 34 0 0 0
SMALL
GASTEIGER

@<TRIPOS>ATOM
      1 S          62.0766   87.7186   11.3068 S.O2    1  UNL1        0.0455
      2 O          60.9747   88.2503   10.4391 O.2     1  UNL1       -0.1572
      3 O          63.1786   87.1869   12.1745 O.2     1  UNL1       -0.1572
      4 C          64.1295   91.7200   11.1514 C.3     1  UNL1        0.0032
      5 C          64.1760   90.9016   12.4075 C.3     1  UNL1        0.0192
      6 C          63.4917   89.5678   12.4593 C.3     1  UNL1        0.0954
      7 N          62.7609   89.0525   11.2550 N.3     1  UNL1       -0.1594
      8 C          62.7145   89.8709    9.9989 C.3     1  UNL1        0.0954
      9 C          63.3988   91.2047    9.9471 C.3     1  UNL1        0.0192
     10 C          64.8138   93.0539   11.0995 C.3     1  UNL1        0.0049
     11 C          65.6417   93.5178   12.2612 C.3     1  UNL1        0.0305
     12 C          66.7847   92.9591   15.2663 C.3     1  UNL1        0.0553
     13 C          67.4456   92.5538   13.9822 C.ar    1  UNL1        0.0966
     14 N          68.7479   91.8206   13.8539 N.ar    1  UNL1       -0.0821
     15 O          69.0274   91.6242   12.3933 O.2     1  UNL1       -0.3584
     16 C          67.8977   92.2361   11.6188 C.ar    1  UNL1        0.1504
     17 C          67.7685   92.2679   10.1248 C.3     1  UNL1        0.0750
     18 C          66.9202   92.8106   12.6009 C.ar    1  UNL1        0.0274
     19 C          61.3923   86.3848   11.3587 C.3     1  UNL1        0.1896
     20 C          62.2040   85.1238   11.3288 C.3     1  UNL1        0.1133
     21 C          62.1194   85.3441   12.8101 C.3     1  UNL1        0.0478
     22 C          62.7780   84.3789   13.7507 C.3     1  UNL1        0.1526
     23 S          63.5211   83.1935   13.2099 S.O2    1  UNL1       -0.0099
     24 O          64.3328   81.9324   13.1801 O.2     1  UNL1       -0.1730
     25 O          63.7185   82.9758   14.6810 O.2     1  UNL1       -0.1730
     26 C          63.6057   82.9731   11.7286 C.3     1  UNL1        0.1526
     27 C          62.9471   83.9383   10.7881 C.3     1  UNL1        0.0478
     28 N          62.0066   85.3414    9.8579 N.am    1  UNL1       -0.1661
     29 O          60.6825   85.8210    9.3416 O.3     1  UNL1       -0.2915
     30 C          63.1336   85.0795    8.9031 C.2     1  UNL1        0.3268
     31 O          62.9362   85.2972    7.4322 O.2     1  UNL1       -0.2627
     32 H          60.0698   85.9400   10.0841 H       1  UNL1        0.2417
@<TRIPOS>BOND
     1    12    13    1
     2    13    14   ar
     3    14    15   ar
     4    15    16   ar
     5    16    17    1
     6    16    18   ar
     7    18    11    1
     8    11    10    1
     9    10     4    1
    10     4     5    1
    11     5     6    1
    12     6     7    1
    13     7     1    1
    14     1     2    2
    15     1     3    2
    16     1    19    1
    17    19    20    1
    18    20    28    1
    19    28    29    1
    20    28    30   am
    21    30    31    2
    22    20    21    1
    23    21    22    1
    24    22    23    1
    25    23    24    2
    26    23    25    2
    27    23    26    1
    28    26    27    1
    29     7     8    1
    30     8     9    1
    31    18    13   ar
    32     9     4    1
    33    27    20    1
    34    29    32    1
@<TRIPOS>MOLECULE
*****
 32 34 0 0 0
SMALL
GASTEIGER

@<TRIPOS>ATOM
      1 S          62.4137   89.4326   11.6943 S.O2    1  UNL1        0.0455
      2 O          62.7607   89.2841   10.2426 O.2     1  UNL1       -0.1572
      3 O          62.0667   89.5812   13.1460 O.2     1  UNL1       -0.1572
      4 C          65.5872   92.5932   12.1294 C.3     1  UNL1        0.0032
      5 C          65.2808   91.6753   13.2755 C.3     1  UNL1        0.0192
      6 C          64.2229   90.6218   13.1304 C.3     1  UNL1        0.0954
      7 N          63.4716   90.4862   11.8393 N.3     1  UNL1       -0.1594
      8 C          63.7780   91.4041   10.6932 C.3     1  UNL1        0.0954
      9 C          64.8358   92.4575   10.8383 C.3     1  UNL1        0.0192
     10 C          66.6451   93.6467   12.2744 C.3     1  UNL1        0.0049
     11 C          66.4722   94.9798   11.6089 C.3     1  UNL1        0.0305
     12 C          68.6887   93.4217    9.7900 C.3     1  UNL1        0.0553
     13 C          67.6569   94.3874    9.2872 C.ar    1  UNL1        0.0966
     14 N          67.4628   94.8065    7.8600 N.ar    1  UNL1       -0.0821
     15 O          66.3240   95.7817    7.8141 O.2     1  UNL1       -0.3584
     16 C          65.8143   95.9654    9.2129 C.ar    1  UNL1        0.1504
     17 C          64.6800   96.8546    9.6283 C.3     1  UNL1        0.0750
     18 C          66.6381   95.1036   10.1232 C.ar    1  UNL1        0.0274
     19 C          61.3559   88.3791   11.5492 C.3     1  UNL1        0.1896
     20 C          60.8069   88.0492   10.1928 C.3     1  UNL1        0.1133
     21 C          61.7699   86.9126   10.3675 C.3     1  UNL1        0.0478
     22 C          61.9157   85.8806    9.2887 C.3     1  UNL1        0.1526
     23 S          61.0984   85.9853    8.0353 S.O2    1  UNL1       -0.0099
     24 O          60.5494   85.6555    6.6789 O.2     1  UNL1       -0.1730
     25 O          61.8708   84.7340    7.7389 O.2     1  UNL1       -0.1730
     26 C          60.1354   87.1220    7.8606 C.3     1  UNL1        0.1526
     27 C          59.9896   88.1539    8.9394 C.3     1  UNL1        0.0478
     28 N          60.0345   89.3005   10.4893 N.am    1  UNL1       -0.1661
     29 O          60.1007   90.4642    9.5452 O.3     1  UNL1       -0.2915
     30 C          59.1958   89.3880   11.7299 C.2     1  UNL1        0.3268
     31 O          58.4235   90.6392   12.0263 O.2     1  UNL1       -0.2627
     32 H          60.6821   90.2439    8.8006 H       1  UNL1        0.2417
@<TRIPOS>BOND
     1    12    13    1
     2    13    14   ar
     3    14    15   ar
     4    15    16   ar
     5    16    17    1
     6    16    18   ar
     7    18    11    1
     8    11    10    1
     9    10     4    1
    10     4     5    1
    11     5     6    1
    12     6     7    1
    13     7     1    1
    14     1     2    2
    15     1     3    2
    16     1    19    1
    17    19    20    1
    18    20    28    1
    19    28    29    1
    20    28    30   am
    21    30    31    2
    22    20    21    1
    23    21    22    1
    24    22    23    1
    25    23    24    2
    26    23    25    2
    27    23    26    1
    28    26    27    1
    29     7     8    1
    30     8     9    1
    31    18    13   ar
    32     9     4    1
    33    27    20    1
    34    29    32    1
@<TRIPOS>MOLECULE
*****
 32 34 0 0 0
SMALL
GASTEIGER

@<TRIPOS>ATOM
      1 S          63.5336   85.1677   14.1158 S.O2    1  UNL1        0.0455
      2 O          64.8550   85.2145   14.8241 O.2     1  UNL1       -0.1572
      3 O          62.2122   85.1209   13.4076 O.2     1  UNL1       -0.1572
      4 C          63.8171   89.5832   13.2955 C.3     1  UNL1        0.0032
      5 C          64.3692   89.0205   14.5716 C.3     1  UNL1        0.0192
      6 C          64.2747   87.5487   14.8450 C.3     1  UNL1        0.0954
      7 N          63.6281   86.6396   13.8424 N.3     1  UNL1       -0.1594
      8 C          63.0759   87.2023   12.5663 C.3     1  UNL1        0.0954
      9 C          63.1704   88.6741   12.2928 C.3     1  UNL1        0.0192
     10 C          63.9116   91.0551   13.0220 C.3     1  UNL1        0.0049
     11 C          64.9811   91.8735   13.6825 C.3     1  UNL1        0.0305
     12 C          65.6393   92.4794   10.5442 C.3     1  UNL1        0.0553
     13 C          66.6496   92.2370   11.6260 C.ar    1  UNL1        0.0966
     14 N          68.1398   92.2305   11.4553 N.ar    1  UNL1       -0.0821
     15 O          68.7584   91.9480   12.7923 O.2     1  UNL1       -0.3584
     16 C          67.6503   91.7798   13.7894 C.ar    1  UNL1        0.1504
     17 C          67.8164   91.4849   15.2507 C.3     1  UNL1        0.0750
     18 C          66.3471   91.9585   13.0685 C.ar    1  UNL1        0.0274
     19 C          63.4391   83.6959   14.3893 C.3     1  UNL1        0.1896
     20 C          63.1592   82.7409   13.2670 C.3     1  UNL1        0.1133
     21 C          64.2183   83.5899   12.6286 C.3     1  UNL1        0.0478
     22 C          64.6633   83.3043   11.2249 C.3     1  UNL1        0.1526
     23 S          64.0493   82.1696   10.4597 S.O2    1  UNL1       -0.0099
     24 O          63.7694   81.2147    9.3373 O.2     1  UNL1       -0.1730
     25 O          65.0112   82.6870    9.4314 O.2     1  UNL1       -0.1730
     26 C          62.9902   81.3206   11.0981 C.3     1  UNL1        0.1526
     27 C          62.5452   81.6063   12.5017 C.3     1  UNL1        0.0478
     28 N          62.1973   82.2236   14.2952 N.am    1  UNL1       -0.1661
     29 O          62.2423   82.7531   15.6979 O.3     1  UNL1       -0.2915
     30 C          61.1904   81.1767   13.9207 C.2     1  UNL1        0.3268
     31 O          60.2286   80.6594   14.9489 O.2     1  UNL1       -0.2627
     32 H          62.9451   83.4178   15.7702 H       1  UNL1        0.2417
@<TRIPOS>BOND
     1    12    13    1
     2    13    14   ar
     3    14    15   ar
     4    15    16   ar
     5    16    17    1
     6    16    18   ar
     7    18    11    1
     8    11    10    1
     9    10     4    1
    10     4     5    1
    11     5     6    1
    12     6     7    1
    13     7     1    1
    14     1     2    2
    15     1     3    2
    16     1    19    1
    17    19    20    1
    18    20    28    1
    19    28    29    1
    20    28    30   am
    21    30    31    2
    22    20    21    1
    23    21    22    1
    24    22    23    1
    25    23    24    2
    26    23    25    2
    27    23    26    1
    28    26    27    1
    29     7     8    1
    30     8     9    1
    31    18    13   ar
    32     9     4    1
    33    27    20    1
    34    29    32    1
@<TRIPOS>MOLECULE
*****
 32 34 0 0 0
SMALL
GASTEIGER

@<TRIPOS>ATOM
      1 S          62.2765   87.4737   11.9670 S.O2    1  UNL1        0.0455
      2 O          61.1727   88.4160   11.5878 O.2     1  UNL1       -0.1572
      3 O          63.3802   86.5315   12.3461 O.2     1  UNL1       -0.1572
      4 C          64.3599   90.8002   14.1679 C.3     1  UNL1        0.0032
      5 C          63.4702   91.1144   13.0018 C.3     1  UNL1        0.0192
      6 C          62.7758   90.0056   12.2682 C.3     1  UNL1        0.0954
      7 N          62.9710   88.5826   12.7007 N.3     1  UNL1       -0.1594
      8 C          63.8606   88.2684   13.8667 C.3     1  UNL1        0.0954
      9 C          64.5551   89.3772   14.6003 C.3     1  UNL1        0.0192
     10 C          65.0544   91.9090   14.9016 C.3     1  UNL1        0.0049
     11 C          65.8375   92.9370   14.1401 C.3     1  UNL1        0.0305
     12 C          65.9382   92.7598   10.8831 C.3     1  UNL1        0.0553
     13 C          67.0658   92.4389   11.8188 C.ar    1  UNL1        0.0966
     14 N          68.4377   91.9803   11.4217 N.ar    1  UNL1       -0.0821
     15 O          69.2393   91.7783   12.6734 O.2     1  UNL1       -0.3584
     16 C          68.3627   92.1121   13.8441 C.ar    1  UNL1        0.1504
     17 C          68.7598   92.0487   15.2892 C.3     1  UNL1        0.0750
     18 C          67.0195   92.5204   13.3158 C.ar    1  UNL1        0.0274
     19 C          61.5819   86.3650   11.2333 C.3     1  UNL1        0.1896
     20 C          62.3776   85.2260   10.6680 C.3     1  UNL1        0.1133
     21 C          62.3922   84.8576   12.1220 C.3     1  UNL1        0.0478
     22 C          63.1014   83.6155   12.5739 C.3     1  UNL1        0.1526
     23 S          63.7961   82.7419   11.5717 S.O2    1  UNL1       -0.0099
     24 O          64.5917   81.6029   11.0064 O.2     1  UNL1       -0.1730
     25 O          64.0870   81.9778   12.8295 O.2     1  UNL1       -0.1730
     26 C          63.7815   83.1103   10.1178 C.3     1  UNL1        0.1526
     27 C          63.0722   84.3523    9.6660 C.3     1  UNL1        0.0478
     28 N          62.0867   85.9900    9.4104 N.am    1  UNL1       -0.1661
     29 O          63.2153   86.4819    8.5535 O.3     1  UNL1       -0.2915
     30 C          60.6670   86.2621    9.0096 C.2     1  UNL1        0.3268
     31 O          60.3761   87.0261    7.7520 O.2     1  UNL1       -0.2627
     32 H          64.0607   86.2233    8.9525 H       1  UNL1        0.2417
@<TRIPOS>BOND
     1    12    13    1
     2    13    14   ar
     3    14    15   ar
     4    15    16   ar
     5    16    17    1
     6    16    18   ar
     7    18    11    1
     8    11    10    1
     9    10     4    1
    10     4     5    1
    11     5     6    1
    12     6     7    1
    13     7     1    1
    14     1     2    2
    15     1     3    2
    16     1    19    1
    17    19    20    1
    18    20    28    1
    19    28    29    1
    20    28    30   am
    21    30    31    2
    22    20    21    1
    23    21    22    1
    24    22    23    1
    25    23    24    2
    26    23    25    2
    27    23    26    1
    28    26    27    1
    29     7     8    1
    30     8     9    1
    31    18    13   ar
    32     9     4    1
    33    27    20    1
    34    29    32    1
