@<TRIPOS>MOLECULE
*****
 31 34 0 0 0
SMALL
GASTEIGER

@<TRIPOS>ATOM
      1 N          65.2613   90.8817   13.2677 N.am    1  UNL1       -0.2667
      2 C          64.2013   90.2641   12.4046 C.2     1  UNL1        0.3077
      3 O          63.4905   91.0963   11.3788 O.2     1  UNL1       -0.2522
      4 N          63.8521   88.8144   12.5672 N.am    1  UNL1       -0.2640
      5 C          64.4740   87.8621   13.5451 C.3     1  UNL1        0.0950
      6 C          63.8259   86.5216   13.3627 C.3     1  UNL1        0.0219
      7 C          63.8097   85.1046   13.8543 C.3     1  UNL1        0.0061
      8 C          62.7774   84.3527   13.0676 C.3     1  UNL1        0.0224
      9 C          62.1555   85.3051   12.0897 C.3     1  UNL1        0.0061
     10 C          62.8036   86.6456   12.2721 C.3     1  UNL1        0.0219
     11 C          62.8198   88.0626   11.7804 C.3     1  UNL1        0.0950
     12 H          65.7278   90.3355   13.9410 H       1  UNL1        0.1565
     13 C          66.1794   93.0999   14.2609 C.ar    1  UNL1        0.0500
     14 C          66.5287   94.5496   14.0982 C.ar    1  UNL1        0.1245
     15 N          66.3090   95.2307   12.7800 N.ar    1  UNL1       -0.1462
     16 N          65.7401   94.4621   11.6243 N.ar    1  UNL1       -0.1450
     17 C          65.3908   93.0125   11.7869 C.ar    1  UNL1        0.1368
     18 C          65.6105   92.3314   13.1052 C.ar    1  UNL1        0.0753
     19 O          65.2723   92.3078   16.5630 O.co2   1  UNL1       -0.5445
     20 C          66.3991   92.4189   15.5791 C.2     1  UNL1        0.0757
     21 O          67.7457   91.8489   15.9136 O.co2   1  UNL1       -0.5445
     22 C          62.4282   82.9031   13.2302 C.ar    1  UNL1       -0.0186
     23 C          61.4655   82.4788   14.2994 C.ar    1  UNL1       -0.0043
     24 C          61.1162   81.0291   14.4621 C.ar    1  UNL1       -0.0003
     25 C          61.7297   80.0037   13.5554 C.ar    1  UNL1       -0.0001
     26 C          62.6924   80.4279   12.4861 C.ar    1  UNL1        0.0035
     27 C          63.0416   81.8775   12.3235 C.ar    1  UNL1        0.0675
     28 C          64.0043   82.3017   11.2543 C.3     1  UNL1        0.4183
     29 F          64.9670   82.7260   10.1851 F       1  UNL1       -0.1659
     30 F          62.8744   82.3890   10.2716 F       1  UNL1       -0.1659
     31 F          65.1342   82.2145   12.2370 F       1  UNL1       -0.1659
@<TRIPOS>UNITY_ATOM_ATTR
19 1
charge -1
@<TRIPOS>BOND
     1    19    20   ar
     2    20    21   ar
     3    20    13    1
     4    13    14   ar
     5    14    15   ar
     6    15    16   ar
     7    16    17   ar
     8    17    18   ar
     9    18     1    1
    10     1     2   am
    11     2     3    2
    12     2     4   am
    13     4     5    1
    14     6     5    1
    15     6     7    1
    16     7     8    1
    17     8    22    1
    18    22    23   ar
    19    23    24   ar
    20    24    25   ar
    21    25    26   ar
    22    26    27   ar
    23    27    28    1
    24    28    29    1
    25    28    30    1
    26    28    31    1
    27     8     9    1
    28    10     9    1
    29    10    11    1
    30    18    13   ar
    31    11     4    1
    32    10     6    1
    33    27    22   ar
    34     1    12    1
@<TRIPOS>MOLECULE
*****
 31 34 0 0 0
SMALL
GASTEIGER

@<TRIPOS>ATOM
      1 N          63.6356   88.4967   14.7478 N.am    1  UNL1       -0.2667
      2 C          64.2083   89.8347   15.1105 C.2     1  UNL1        0.3077
      3 O          64.3998   90.2028   16.5519 O.2     1  UNL1       -0.2522
      4 N          64.5895   90.8047   14.0317 N.am    1  UNL1       -0.2640
      5 C          64.4566   90.5780   12.5549 C.3     1  UNL1        0.0950
      6 C          64.9555   91.8049   11.8509 C.3     1  UNL1        0.0219
      7 C          65.1817   92.4231   10.5030 C.3     1  UNL1        0.0061
      8 C          65.7628   93.7902   10.7116 C.3     1  UNL1        0.0224
      9 C          65.8956   94.0169   12.1884 C.3     1  UNL1        0.0061
     10 C          65.3967   92.7900   12.8925 C.3     1  UNL1        0.0219
     11 C          65.1705   92.1718   14.2403 C.3     1  UNL1        0.0950
     12 H          63.5099   88.2551   13.8017 H       1  UNL1        0.1565
     13 C          63.3762   86.0511   15.5857 C.ar    1  UNL1        0.0500
     14 C          62.9950   85.0811   16.6644 C.ar    1  UNL1        0.1245
     15 N          62.4918   85.5866   17.9840 N.ar    1  UNL1       -0.1462
     16 N          62.3699   87.0621   18.2249 N.ar    1  UNL1       -0.1450
     17 C          62.7512   88.0321   17.1461 C.ar    1  UNL1        0.1368
     18 C          63.2543   87.5266   15.8265 C.ar    1  UNL1        0.0753
     19 O          65.0631   84.6256   14.2173 O.co2   1  UNL1       -0.5445
     20 C          63.8794   85.5456   14.2661 C.2     1  UNL1        0.0757
     21 O          63.1988   85.9601   12.9953 O.co2   1  UNL1       -0.5445
     22 C          66.1439   94.7602    9.6329 C.ar    1  UNL1       -0.0186
     23 C          65.2192   95.8858    9.2753 C.ar    1  UNL1       -0.0043
     24 C          65.6004   96.8559    8.1966 C.ar    1  UNL1       -0.0003
     25 C          66.9064   96.7003    7.4753 C.ar    1  UNL1       -0.0001
     26 C          67.8312   95.5746    7.8328 C.ar    1  UNL1        0.0035
     27 C          67.4500   94.6046    8.9115 C.ar    1  UNL1        0.0675
     28 C          68.3747   93.4790    9.2691 C.3     1  UNL1        0.4183
     29 F          69.2994   92.3534    9.6266 F       1  UNL1       -0.1659
     30 F          68.6204   94.1065   10.6092 F       1  UNL1       -0.1659
     31 F          68.1290   92.8515    7.9290 F       1  UNL1       -0.1659
@<TRIPOS>UNITY_ATOM_ATTR
19 1
charge -1
@<TRIPOS>BOND
     1    19    20   ar
     2    20    21   ar
     3    20    13    1
     4    13    14   ar
     5    14    15   ar
     6    15    16   ar
     7    16    17   ar
     8    17    18   ar
     9    18     1    1
    10     1     2   am
    11     2     3    2
    12     2     4   am
    13     4     5    1
    14     6     5    1
    15     6     7    1
    16     7     8    1
    17     8    22    1
    18    22    23   ar
    19    23    24   ar
    20    24    25   ar
    21    25    26   ar
    22    26    27   ar
    23    27    28    1
    24    28    29    1
    25    28    30    1
    26    28    31    1
    27     8     9    1
    28    10     9    1
    29    10    11    1
    30    18    13   ar
    31    11     4    1
    32    10     6    1
    33    27    22   ar
    34     1    12    1
@<TRIPOS>MOLECULE
*****
 31 34 0 0 0
SMALL
GASTEIGER

@<TRIPOS>ATOM
      1 N          45.7501   71.1409   15.3638 N.am    1  UNL1       -0.2667
      2 C          45.8516   71.2594   16.8556 C.2     1  UNL1        0.3077
      3 O          46.1277   70.0423   17.6877 O.2     1  UNL1       -0.2522
      4 N          45.6770   72.5952   17.5154 N.am    1  UNL1       -0.2640
      5 C          45.3980   73.8934   16.8178 C.3     1  UNL1        0.0950
      6 C          45.2993   74.9677   17.8599 C.3     1  UNL1        0.0219
      7 C          45.0659   76.4341   18.0728 C.3     1  UNL1        0.0061
      8 C          45.1396   76.7061   19.5462 C.3     1  UNL1        0.0224
      9 C          45.4187   75.4078   20.2438 C.3     1  UNL1        0.0061
     10 C          45.5173   74.3335   19.2016 C.3     1  UNL1        0.0219
     11 C          45.7507   72.8671   18.9887 C.3     1  UNL1        0.0950
     12 H          45.5689   71.9397   14.8177 H       1  UNL1        0.1565
     13 C          45.1130   69.4556   13.4919 C.ar    1  UNL1        0.0500
     14 C          45.2877   68.1198   12.8321 C.ar    1  UNL1        0.1245
     15 N          46.2740   67.1338   13.3843 N.ar    1  UNL1       -0.1462
     16 N          47.0856   67.4833   14.5962 N.ar    1  UNL1       -0.1450
     17 C          46.9110   68.8191   15.2561 C.ar    1  UNL1        0.1368
     18 C          45.9247   69.8051   14.7039 C.ar    1  UNL1        0.0753
     19 O          43.6342   70.3004   11.5299 O.co2   1  UNL1       -0.5445
     20 C          44.1268   70.4416   12.9397 C.2     1  UNL1        0.0757
     21 O          43.6330   71.5689   13.7973 O.co2   1  UNL1       -0.5445
     22 C          44.9651   78.0418   20.2059 C.ar    1  UNL1       -0.0186
     23 C          43.8085   78.2754   21.1321 C.ar    1  UNL1       -0.0043
     24 C          43.6339   79.6111   21.7920 C.ar    1  UNL1       -0.0003
     25 C          44.6158   80.7132   21.5256 C.ar    1  UNL1       -0.0001
     26 C          45.7725   80.4797   20.5994 C.ar    1  UNL1        0.0035
     27 C          45.9471   79.1440   19.9396 C.ar    1  UNL1        0.0675
     28 C          47.1036   78.9104   19.0135 C.3     1  UNL1        0.4183
     29 F          48.2602   78.6768   18.0873 F       1  UNL1       -0.1659
     30 F          47.8073   78.1352   20.0877 F       1  UNL1       -0.1659
     31 F          46.4000   79.6857   17.9393 F       1  UNL1       -0.1659
@<TRIPOS>UNITY_ATOM_ATTR
19 1
charge -1
@<TRIPOS>BOND
     1    19    20   ar
     2    20    21   ar
     3    20    13    1
     4    13    14   ar
     5    14    15   ar
     6    15    16   ar
     7    16    17   ar
     8    17    18   ar
     9    18     1    1
    10     1     2   am
    11     2     3    2
    12     2     4   am
    13     4     5    1
    14     6     5    1
    15     6     7    1
    16     7     8    1
    17     8    22    1
    18    22    23   ar
    19    23    24   ar
    20    24    25   ar
    21    25    26   ar
    22    26    27   ar
    23    27    28    1
    24    28    29    1
    25    28    30    1
    26    28    31    1
    27     8     9    1
    28    10     9    1
    29    10    11    1
    30    18    13   ar
    31    11     4    1
    32    10     6    1
    33    27    22   ar
    34     1    12    1
@<TRIPOS>MOLECULE
*****
 31 34 0 0 0
SMALL
GASTEIGER

@<TRIPOS>ATOM
      1 N          63.3229   86.7843   13.5235 N.am    1  UNL1       -0.2667
      2 C          63.9700   87.9116   14.2722 C.2     1  UNL1        0.3077
      3 O          64.2481   87.7753   15.7398 O.2     1  UNL1       -0.2522
      4 N          64.3389   89.1753   13.5531 N.am    1  UNL1       -0.2640
      5 C          64.1236   89.4552   12.0953 C.3     1  UNL1        0.0950
      6 C          64.6395   90.8339   11.8070 C.3     1  UNL1        0.0219
      7 C          64.8253   91.8589   10.7277 C.3     1  UNL1        0.0061
      8 C          65.4743   93.0646   11.3403 C.3     1  UNL1        0.0224
      9 C          65.6896   92.7847   12.7982 C.3     1  UNL1        0.0061
     10 C          65.1737   91.4060   13.0865 C.3     1  UNL1        0.0219
     11 C          64.9879   90.3810   14.1658 C.3     1  UNL1        0.0950
     12 H          63.1404   86.8738   12.5603 H       1  UNL1        0.1565
     13 C          62.7528   84.2501   13.4709 C.ar    1  UNL1        0.0500
     14 C          62.3839   82.9864   14.1899 C.ar    1  UNL1        0.1245
     15 N          62.2161   82.9933   15.6805 N.ar    1  UNL1       -0.1462
     16 N          62.4172   84.2637   16.4521 N.ar    1  UNL1       -0.1450
     17 C          62.7862   85.5274   15.7331 C.ar    1  UNL1        0.1368
     18 C          62.9540   85.5206   14.2425 C.ar    1  UNL1        0.0753
     19 O          62.0999   85.1661   11.1290 O.co2   1  UNL1       -0.5445
     20 C          62.9206   84.2433   11.9803 C.2     1  UNL1        0.0757
     21 O          63.9091   83.3136   11.3412 O.co2   1  UNL1       -0.5445
     22 C          65.8432   94.3283   10.6213 C.ar    1  UNL1       -0.0186
     23 C          65.0105   95.5631   10.7996 C.ar    1  UNL1       -0.0043
     24 C          65.3794   96.8268   10.0806 C.ar    1  UNL1       -0.0003
     25 C          66.5810   96.8557    9.1833 C.ar    1  UNL1       -0.0001
     26 C          67.4138   95.6208    9.0050 C.ar    1  UNL1        0.0035
     27 C          67.0449   94.3572    9.7240 C.ar    1  UNL1        0.0675
     28 C          67.8776   93.1224    9.5457 C.3     1  UNL1        0.4183
     29 F          68.7104   91.8876    9.3674 F       1  UNL1       -0.1659
     30 F          67.8496   93.3182    8.0588 F       1  UNL1       -0.1659
     31 F          67.9056   92.9266   11.0326 F       1  UNL1       -0.1659
@<TRIPOS>UNITY_ATOM_ATTR
19 1
charge -1
@<TRIPOS>BOND
     1    19    20   ar
     2    20    21   ar
     3    20    13    1
     4    13    14   ar
     5    14    15   ar
     6    15    16   ar
     7    16    17   ar
     8    17    18   ar
     9    18     1    1
    10     1     2   am
    11     2     3    2
    12     2     4   am
    13     4     5    1
    14     6     5    1
    15     6     7    1
    16     7     8    1
    17     8    22    1
    18    22    23   ar
    19    23    24   ar
    20    24    25   ar
    21    25    26   ar
    22    26    27   ar
    23    27    28    1
    24    28    29    1
    25    28    30    1
    26    28    31    1
    27     8     9    1
    28    10     9    1
    29    10    11    1
    30    18    13   ar
    31    11     4    1
    32    10     6    1
    33    27    22   ar
    34     1    12    1
@<TRIPOS>MOLECULE
*****
 31 34 0 0 0
SMALL
GASTEIGER

@<TRIPOS>ATOM
      1 N          62.5102   83.7028   13.1960 N.am    1  UNL1       -0.2667
      2 C          63.1815   84.4097   14.3360 C.2     1  UNL1        0.3077
      3 O          63.4217   83.6880   15.6289 O.2     1  UNL1       -0.2522
      4 N          63.6126   85.8382   14.1831 N.am    1  UNL1       -0.2640
      5 C          63.4403   86.6848   12.9569 C.3     1  UNL1        0.0950
      6 C          64.0130   88.0408   13.2456 C.3     1  UNL1        0.0219
      7 C          64.2604   89.4020   12.6662 C.3     1  UNL1        0.0061
      8 C          64.9395   90.2349   13.7127 C.3     1  UNL1        0.0224
      9 C          65.1119   89.3882   14.9390 C.3     1  UNL1        0.0061
     10 C          64.5392   88.0323   14.6502 C.3     1  UNL1        0.0219
     11 C          64.2918   86.6710   15.2297 C.3     1  UNL1        0.0950
     12 H          62.3526   84.1764   12.3475 H       1  UNL1        0.1565
     13 C          62.7098   81.2061   12.5055 C.ar    1  UNL1        0.0500
     14 C          62.2786   79.7776   12.6583 C.ar    1  UNL1        0.1245
     15 N          61.2167   79.4172   13.6545 N.ar    1  UNL1       -0.1462
     16 N          60.5859   80.4853   14.4978 N.ar    1  UNL1       -0.1450
     17 C          61.0171   81.9138   14.3450 C.ar    1  UNL1        0.1368
     18 C          62.0791   82.2742   13.3488 C.ar    1  UNL1        0.0753
     19 O          63.5974   81.2063   10.0637 O.co2   1  UNL1       -0.5445
     20 C          63.7718   81.5665   11.5093 C.2     1  UNL1        0.0757
     21 O          65.0082   82.2871   11.9588 O.co2   1  UNL1       -0.5445
     22 C          65.3706   91.6634   13.5599 C.ar    1  UNL1       -0.0186
     23 C          66.0834   92.3560   14.6834 C.ar    1  UNL1       -0.0043
     24 C          66.5145   93.7846   14.5306 C.ar    1  UNL1       -0.0003
     25 C          66.2329   94.5205   13.2542 C.ar    1  UNL1       -0.0001
     26 C          65.5202   93.8278   12.1306 C.ar    1  UNL1        0.0035
     27 C          65.0890   92.3994   12.2835 C.ar    1  UNL1        0.0675
     28 C          64.3763   91.7067   11.1600 C.3     1  UNL1        0.4183
     29 F          63.6636   91.0141   10.0365 F       1  UNL1       -0.1659
     30 F          65.6571   91.6523   10.3811 F       1  UNL1       -0.1659
     31 F          63.0956   91.7612   11.9389 F       1  UNL1       -0.1659
@<TRIPOS>UNITY_ATOM_ATTR
19 1
charge -1
@<TRIPOS>BOND
     1    19    20   ar
     2    20    21   ar
     3    20    13    1
     4    13    14   ar
     5    14    15   ar
     6    15    16   ar
     7    16    17   ar
     8    17    18   ar
     9    18     1    1
    10     1     2   am
    11     2     3    2
    12     2     4   am
    13     4     5    1
    14     6     5    1
    15     6     7    1
    16     7     8    1
    17     8    22    1
    18    22    23   ar
    19    23    24   ar
    20    24    25   ar
    21    25    26   ar
    22    26    27   ar
    23    27    28    1
    24    28    29    1
    25    28    30    1
    26    28    31    1
    27     8     9    1
    28    10     9    1
    29    10    11    1
    30    18    13   ar
    31    11     4    1
    32    10     6    1
    33    27    22   ar
    34     1    12    1
@<TRIPOS>MOLECULE
*****
 31 34 0 0 0
SMALL
GASTEIGER

@<TRIPOS>ATOM
      1 N          62.6805   84.3128   13.1516 N.am    1  UNL1       -0.2667
      2 C          63.4331   85.0810   14.1972 C.2     1  UNL1        0.3077
      3 O          63.7978   84.4222   15.4945 O.2     1  UNL1       -0.2522
      4 N          63.8211   86.5079   13.9456 N.am    1  UNL1       -0.2640
      5 C          63.5272   87.2955   12.7033 C.3     1  UNL1        0.0950
      6 C          64.0955   88.6721   12.8820 C.3     1  UNL1        0.0219
      7 C          64.2652   90.0097   12.2246 C.3     1  UNL1        0.0061
      8 C          65.0151   90.8996   13.1711 C.3     1  UNL1        0.0224
      9 C          65.3089   90.1119   14.4134 C.3     1  UNL1        0.0061
     10 C          64.7406   88.7353   14.2347 C.3     1  UNL1        0.0219
     11 C          64.5710   87.3977   14.8921 C.3     1  UNL1        0.0950
     12 H          62.4411   84.7452   12.3001 H       1  UNL1        0.1565
     13 C          62.8483   81.7938   12.5381 C.ar    1  UNL1        0.0500
     14 C          62.4603   80.3668   12.7897 C.ar    1  UNL1        0.1245
     15 N          61.5164   80.0320   13.9064 N.ar    1  UNL1       -0.1462
     16 N          60.9606   81.1241   14.7715 N.ar    1  UNL1       -0.1450
     17 C          61.3487   82.5510   14.5199 C.ar    1  UNL1        0.1368
     18 C          62.2925   82.8858   13.4032 C.ar    1  UNL1        0.0753
     19 O          64.9213   83.0878   11.6558 O.co2   1  UNL1       -0.5445
     20 C          63.7921   82.1286   11.4213 C.2     1  UNL1        0.0757
     21 O          63.6069   81.5041   10.0702 O.co2   1  UNL1       -0.5445
     22 C          65.4030   92.3265   12.9195 C.ar    1  UNL1       -0.0186
     23 C          65.0538   92.9799   11.6152 C.ar    1  UNL1       -0.0043
     24 C          65.4417   94.4068   11.3635 C.ar    1  UNL1       -0.0003
     25 C          66.1789   95.1804   12.4162 C.ar    1  UNL1       -0.0001
     26 C          66.5282   94.5270   13.7205 C.ar    1  UNL1        0.0035
     27 C          66.1403   93.1002   13.9721 C.ar    1  UNL1        0.0675
     28 C          66.4895   92.4468   15.2764 C.3     1  UNL1        0.4183
     29 F          66.8388   91.7934   16.5806 F       1  UNL1       -0.1659
     30 F          65.1508   92.8361   15.8299 F       1  UNL1       -0.1659
     31 F          67.8282   92.0575   14.7229 F       1  UNL1       -0.1659
@<TRIPOS>UNITY_ATOM_ATTR
19 1
charge -1
@<TRIPOS>BOND
     1    19    20   ar
     2    20    21   ar
     3    20    13    1
     4    13    14   ar
     5    14    15   ar
     6    15    16   ar
     7    16    17   ar
     8    17    18   ar
     9    18     1    1
    10     1     2   am
    11     2     3    2
    12     2     4   am
    13     4     5    1
    14     6     5    1
    15     6     7    1
    16     7     8    1
    17     8    22    1
    18    22    23   ar
    19    23    24   ar
    20    24    25   ar
    21    25    26   ar
    22    26    27   ar
    23    27    28    1
    24    28    29    1
    25    28    30    1
    26    28    31    1
    27     8     9    1
    28    10     9    1
    29    10    11    1
    30    18    13   ar
    31    11     4    1
    32    10     6    1
    33    27    22   ar
    34     1    12    1
@<TRIPOS>MOLECULE
*****
 31 34 0 0 0
SMALL
GASTEIGER

@<TRIPOS>ATOM
      1 N          59.5324   90.0664    7.0425 N.am    1  UNL1       -0.2667
      2 C          59.4490   88.5832    7.2502 C.2     1  UNL1        0.3077
      3 O          58.5868   87.7474    6.3514 O.2     1  UNL1       -0.2522
      4 N          60.2277   87.9359    8.3568 N.am    1  UNL1       -0.2640
      5 C          61.1272   88.6386    9.3301 C.3     1  UNL1        0.0950
      6 C          61.6990   87.6092   10.2592 C.3     1  UNL1        0.0219
      7 C          62.6084   87.4073   11.4349 C.3     1  UNL1        0.0061
      8 C          62.6244   85.9436   11.7626 C.3     1  UNL1        0.0224
      9 C          61.7249   85.2409   10.7893 C.3     1  UNL1        0.0061
     10 C          61.1530   86.2703    9.8602 C.3     1  UNL1        0.0219
     11 C          60.2437   86.4722    8.6844 C.3     1  UNL1        0.0950
     12 H          60.0983   90.6150    7.6325 H       1  UNL1        0.1565
     13 C          59.4746   91.3691    4.7954 C.ar    1  UNL1        0.0500
     14 C          58.6958   92.0165    3.6888 C.ar    1  UNL1        0.1245
     15 N          57.1962   92.0086    3.7229 N.ar    1  UNL1       -0.1462
     16 N          56.4754   91.3533    4.8634 N.ar    1  UNL1       -0.1450
     17 C          57.2541   90.7059    5.9700 C.ar    1  UNL1        0.1368
     18 C          58.7537   90.7138    5.9359 C.ar    1  UNL1        0.0753
     19 O          61.6944   91.9385    3.5713 O.co2   1  UNL1       -0.5445
     20 C          60.9742   91.3771    4.7613 C.2     1  UNL1        0.0757
     21 O          61.7536   90.8236    5.9172 O.co2   1  UNL1       -0.5445
     22 C          63.4031   85.2963   12.8691 C.ar    1  UNL1       -0.0186
     23 C          63.7632   86.0844   14.0935 C.ar    1  UNL1       -0.0043
     24 C          64.5419   85.4371   15.2001 C.ar    1  UNL1       -0.0003
     25 C          64.9605   84.0016   15.0823 C.ar    1  UNL1       -0.0001
     26 C          64.6004   83.2133   13.8579 C.ar    1  UNL1        0.0035
     27 C          63.8217   83.8606   12.7514 C.ar    1  UNL1        0.0675
     28 C          63.4616   83.0724   11.5270 C.3     1  UNL1        0.4183
     29 F          63.1015   82.2842   10.3027 F       1  UNL1       -0.1659
     30 F          64.6752   83.6070   10.8260 F       1  UNL1       -0.1659
     31 F          62.2481   82.5378   12.2281 F       1  UNL1       -0.1659
@<TRIPOS>UNITY_ATOM_ATTR
19 1
charge -1
@<TRIPOS>BOND
     1    19    20   ar
     2    20    21   ar
     3    20    13    1
     4    13    14   ar
     5    14    15   ar
     6    15    16   ar
     7    16    17   ar
     8    17    18   ar
     9    18     1    1
    10     1     2   am
    11     2     3    2
    12     2     4   am
    13     4     5    1
    14     6     5    1
    15     6     7    1
    16     7     8    1
    17     8    22    1
    18    22    23   ar
    19    23    24   ar
    20    24    25   ar
    21    25    26   ar
    22    26    27   ar
    23    27    28    1
    24    28    29    1
    25    28    30    1
    26    28    31    1
    27     8     9    1
    28    10     9    1
    29    10    11    1
    30    18    13   ar
    31    11     4    1
    32    10     6    1
    33    27    22   ar
    34     1    12    1
