@<TRIPOS>MOLECULE
*****
 47 51 0 0 0
SMALL
GASTEIGER

@<TRIPOS>ATOM
      1 N          61.1110   87.3181    9.0849 N.am    1  UNL1       -0.2541
      2 C          60.0890   87.1918    7.9942 C.2     1  UNL1        0.2456
      3 O          59.7970   85.8494    7.3918 O.2     1  UNL1       -0.2730
      4 C          59.3590   88.4078    7.5060 C.3     1  UNL1        0.1555
      5 N          59.6510   89.7501    8.1083 N.3     1  UNL1       -0.2883
      6 C          60.6730   89.8764    9.1990 C.3     1  UNL1        0.0932
      7 C          61.4030   88.6604    9.6872 C.3     1  UNL1        0.1390
      8 H          58.7712   90.1005    8.4872 H       1  UNL1        0.1237
      9 C          63.3011   83.6701   10.5496 C.ar    1  UNL1        0.1386
     10 C          62.3449   84.3856   11.4572 C.ar    1  UNL1        0.0382
     11 C          61.6149   85.6016   10.9689 C.ar    1  UNL1        0.0180
     12 C          61.8410   86.1021    9.5731 C.ar    1  UNL1        0.0542
     13 C          62.7972   85.3866    8.6656 C.ar    1  UNL1        0.0180
     14 C          63.5272   84.1705    9.1538 C.ar    1  UNL1        0.0382
     15 O          64.0311   82.4541   11.0379 O.3     1  UNL1       -0.4754
     16 C          63.3333   81.1270   11.0803 C.3     1  UNL1        0.2080
     17 C          62.9711   80.5118   12.3995 C.3     1  UNL1        0.0794
     18 C          61.9156   81.1442   13.2574 C.3     1  UNL1        0.1465
     19 O          62.2269   81.5178   14.6764 O.3     1  UNL1       -0.3488
     20 C          62.0752   82.9401   15.1281 C.3     1  UNL1        0.1716
     21 C          63.2307   85.1656   15.8077 C.ar    1  UNL1        0.1370
     22 C          64.3879   86.1139   15.7008 C.ar    1  UNL1        0.0367
     23 C          65.5470   85.7851   14.8072 C.ar    1  UNL1        0.0031
     24 C          65.5488   84.5079   14.0205 C.ar    1  UNL1       -0.0000
     25 C          64.3915   83.5595   14.1275 C.ar    1  UNL1        0.0012
     26 C          63.2325   83.8884   15.0211 C.ar    1  UNL1        0.0413
     27 C          62.2062   86.5688   17.7394 C.3     1  UNL1        0.2525
     28 O          62.0716   85.4944   16.7013 O.3     1  UNL1       -0.4717
     29 C          62.4251   88.7868   10.7779 C.3     1  UNL1        0.2267
     30 O          62.0456   89.3978   12.0942 O.3     1  UNL1       -0.4736
     31 C          63.0912   90.0559   12.9448 C.ar    1  UNL1        0.1398
     32 C          63.3708   89.5380   14.3245 C.ar    1  UNL1        0.0367
     33 C          64.4164   90.1962   15.1751 C.ar    1  UNL1        0.0001
     34 C          65.1825   91.3722   14.6459 C.ar    1  UNL1       -0.0086
     35 C          64.9029   91.8902   13.2663 C.ar    1  UNL1        0.0469
     36 C          63.8573   91.2320   12.4157 C.ar    1  UNL1        0.0511
     37 N          65.6690   93.0662   12.7371 N.pl3   1  UNL1       -0.3060
     38 C          66.7146   93.7244   13.5877 C.3     1  UNL1        0.0912
     39 C          66.9942   93.2065   14.9675 C.3     1  UNL1        0.0261
     40 C          66.2281   92.0304   15.4966 C.3     1  UNL1        0.0294
     41 C          65.3895   93.5842   11.3575 C.3     1  UNL1        0.1120
     42 C          66.4172   94.4122   10.6447 C.3     1  UNL1        0.1108
     43 N          67.1592   93.8412    9.4728 N.am    1  UNL1       -0.3026
     44 C          68.1502   92.7344    9.6796 C.2     1  UNL1        0.2230
     45 C          68.8922   92.1634    8.5078 C.3     1  UNL1        0.0946
     46 O          68.3993   92.1986   11.0583 O.2     1  UNL1       -0.2751
     47 H          66.9957   94.1929    8.5679 H       1  UNL1        0.1495
@<TRIPOS>BOND
     1    27    28    1
     2    28    21    1
     3    21    22   ar
     4    22    23   ar
     5    23    24   ar
     6    24    25   ar
     7    25    26   ar
     8    26    20    1
     9    20    19    1
    10    19    18    1
    11    18    17    1
    12    17    16    1
    13    16    15    1
    14    15     9    1
    15     9    10   ar
    16    10    11   ar
    17    11    12   ar
    18    12     1    1
    19     1     2   am
    20     2     3    2
    21     2     4    1
    22     4     5    1
    23     5     6    1
    24     6     7    1
    25     7    29    1
    26    29    30    1
    27    30    31    1
    28    31    32   ar
    29    32    33   ar
    30    33    34   ar
    31    34    35   ar
    32    35    36   ar
    33    35    37    1
    34    37    41    1
    35    41    42    1
    36    42    43    1
    37    43    44   am
    38    44    45    1
    39    44    46    2
    40    37    38    1
    41    38    39    1
    42    39    40    1
    43    12    13   ar
    44    13    14   ar
    45    26    21   ar
    46    14     9   ar
    47     7     1    1
    48    36    31   ar
    49    40    34    1
    50     5     8    1
    51    43    47    1
@<TRIPOS>MOLECULE
*****
 47 51 0 0 0
SMALL
GASTEIGER

@<TRIPOS>ATOM
      1 N          61.3059   88.3904    9.5190 N.am    1  UNL1       -0.2541
      2 C          60.0575   88.9707    8.9233 C.2     1  UNL1        0.2456
      3 O          59.6167   90.3528    9.3049 O.2     1  UNL1       -0.2730
      4 C          59.2500   88.1689    7.9460 C.3     1  UNL1        0.1555
      5 N          59.6908   86.7869    7.5644 N.3     1  UNL1       -0.2883
      6 C          60.9391   86.2066    8.1601 C.3     1  UNL1        0.0932
      7 C          61.7467   87.0084    9.1374 C.3     1  UNL1        0.1390
      8 H          59.8203   86.7880    6.5527 H       1  UNL1        0.1237
      9 C          63.7285   90.7957   12.4508 C.ar    1  UNL1        0.1386
     10 C          63.0579   89.5290   12.8930 C.ar    1  UNL1        0.0382
     11 C          62.2503   88.7272   11.9157 C.ar    1  UNL1        0.0180
     12 C          62.1134   89.1922   10.4962 C.ar    1  UNL1        0.0542
     13 C          62.7841   90.4589   10.0540 C.ar    1  UNL1        0.0180
     14 C          63.5917   91.2606   11.0313 C.ar    1  UNL1        0.0382
     15 O          64.5361   91.5974   13.4281 O.3     1  UNL1       -0.4754
     16 C          65.5967   90.9288   14.2513 C.3     1  UNL1        0.2080
     17 C          66.7466   91.7295   14.7867 C.3     1  UNL1        0.0794
     18 C          66.6128   93.2140   14.9551 C.3     1  UNL1        0.1465
     19 O          66.9327   94.1303   13.8114 O.3     1  UNL1       -0.3488
     20 C          66.1684   94.0199   12.5255 C.3     1  UNL1        0.1716
     21 C          67.0857   94.7368   10.2029 C.ar    1  UNL1        0.1370
     22 C          67.8042   94.4007    8.9298 C.ar    1  UNL1        0.0367
     23 C          68.3240   93.0115    8.7063 C.ar    1  UNL1        0.0031
     24 C          68.1252   91.9584    9.7558 C.ar    1  UNL1       -0.0000
     25 C          67.4067   92.2945   11.0289 C.ar    1  UNL1        0.0012
     26 C          66.8869   93.6837   11.2524 C.ar    1  UNL1        0.0413
     27 C          65.1466   96.4613   10.0757 C.3     1  UNL1        0.2525
     28 O          66.5659   96.1260   10.4264 O.3     1  UNL1       -0.4717
     29 C          62.9951   86.4281    9.7330 C.3     1  UNL1        0.2267
     30 O          63.4969   85.0928    9.2692 O.3     1  UNL1       -0.4736
     31 C          63.3010   83.8784   10.1276 C.ar    1  UNL1        0.1398
     32 C          63.4096   82.5088    9.5255 C.ar    1  UNL1        0.0367
     33 C          63.2137   81.2945   10.3840 C.ar    1  UNL1        0.0001
     34 C          62.9091   81.4497   11.8445 C.ar    1  UNL1       -0.0086
     35 C          62.8004   82.8192   12.4466 C.ar    1  UNL1        0.0469
     36 C          62.9964   84.0336   11.5881 C.ar    1  UNL1        0.0511
     37 N          62.4958   82.9744   13.9071 N.pl3   1  UNL1       -0.3060
     38 C          62.2999   81.7601   14.7656 C.3     1  UNL1        0.0912
     39 C          62.4085   80.3905   14.1635 C.3     1  UNL1        0.0261
     40 C          62.7131   80.2353   12.7030 C.3     1  UNL1        0.0294
     41 C          62.3872   84.3440   14.5092 C.3     1  UNL1        0.1120
     42 C          63.4496   84.8379   15.4458 C.3     1  UNL1        0.1108
     43 N          63.5996   86.3084   15.7013 N.am    1  UNL1       -0.3026
     44 C          62.9088   86.9403   16.8732 C.2     1  UNL1        0.2230
     45 C          63.0588   88.4107   17.1287 C.3     1  UNL1        0.0946
     46 O          62.0680   86.1018   17.7897 O.2     1  UNL1       -0.2751
     47 H          64.1515   86.8587   15.0998 H       1  UNL1        0.1495
@<TRIPOS>BOND
     1    27    28    1
     2    28    21    1
     3    21    22   ar
     4    22    23   ar
     5    23    24   ar
     6    24    25   ar
     7    25    26   ar
     8    26    20    1
     9    20    19    1
    10    19    18    1
    11    18    17    1
    12    17    16    1
    13    16    15    1
    14    15     9    1
    15     9    10   ar
    16    10    11   ar
    17    11    12   ar
    18    12     1    1
    19     1     2   am
    20     2     3    2
    21     2     4    1
    22     4     5    1
    23     5     6    1
    24     6     7    1
    25     7    29    1
    26    29    30    1
    27    30    31    1
    28    31    32   ar
    29    32    33   ar
    30    33    34   ar
    31    34    35   ar
    32    35    36   ar
    33    35    37    1
    34    37    41    1
    35    41    42    1
    36    42    43    1
    37    43    44   am
    38    44    45    1
    39    44    46    2
    40    37    38    1
    41    38    39    1
    42    39    40    1
    43    12    13   ar
    44    13    14   ar
    45    26    21   ar
    46    14     9   ar
    47     7     1    1
    48    36    31   ar
    49    40    34    1
    50     5     8    1
    51    43    47    1
@<TRIPOS>MOLECULE
*****
 47 51 0 0 0
SMALL
GASTEIGER

@<TRIPOS>ATOM
      1 N          63.2276   81.8844   12.6314 N.am    1  UNL1       -0.2541
      2 C          62.8129   80.5264   13.1149 C.2     1  UNL1        0.2456
      3 O          62.5880   80.2878   14.5787 O.2     1  UNL1       -0.2730
      4 C          62.6231   79.4069   12.1348 C.3     1  UNL1        0.1555
      5 N          62.8480   79.6454   10.6711 N.3     1  UNL1       -0.2883
      6 C          63.2627   81.0034   10.1875 C.3     1  UNL1        0.0932
      7 C          63.4525   82.1229   11.1677 C.3     1  UNL1        0.1390
      8 H          61.9732   79.4189   10.1980 H       1  UNL1        0.1237
      9 C          63.7971   85.2428   15.5720 C.ar    1  UNL1        0.1386
     10 C          64.9209   84.8440   14.6621 C.ar    1  UNL1        0.0382
     11 C          64.7311   83.7245   13.6819 C.ar    1  UNL1        0.0180
     12 C          63.4174   83.0039   13.6116 C.ar    1  UNL1        0.0542
     13 C          62.2936   83.4027   14.5215 C.ar    1  UNL1        0.0180
     14 C          62.4835   84.5222   15.5016 C.ar    1  UNL1        0.0382
     15 O          63.9869   86.3623   16.5521 O.3     1  UNL1       -0.4754
     16 C          62.8288   87.2418   16.9196 C.3     1  UNL1        0.2080
     17 C          62.9765   88.7339   16.8753 C.3     1  UNL1        0.0794
     18 C          63.5515   89.3948   15.6576 C.3     1  UNL1        0.1465
     19 O          63.7427   90.8823   15.6314 O.3     1  UNL1       -0.3488
     20 C          65.0348   91.4638   15.1392 C.3     1  UNL1        0.1716
     21 C          66.2169   92.8939   13.3206 C.ar    1  UNL1        0.1370
     22 C          66.3479   93.3270   11.8905 C.ar    1  UNL1        0.0367
     23 C          65.4276   92.7631   10.8488 C.ar    1  UNL1        0.0031
     24 C          64.3763   91.7661   11.2372 C.ar    1  UNL1       -0.0000
     25 C          64.2454   91.3330   12.6674 C.ar    1  UNL1        0.0012
     26 C          65.1657   91.8969   13.7091 C.ar    1  UNL1        0.0413
     27 C          68.3282   92.6679   14.8178 C.3     1  UNL1        0.2525
     28 O          67.1373   93.4579   14.3623 O.3     1  UNL1       -0.4717
     29 C          63.8673   83.4809   10.6841 C.3     1  UNL1        0.2267
     30 O          62.9231   84.3038    9.8587 O.3     1  UNL1       -0.4736
     31 C          62.5004   85.6624   10.3336 C.ar    1  UNL1        0.1398
     32 C          62.9788   86.1759   11.6592 C.ar    1  UNL1        0.0367
     33 C          62.5561   87.5345   12.1341 C.ar    1  UNL1        0.0001
     34 C          61.6551   88.3796   11.2833 C.ar    1  UNL1       -0.0086
     35 C          61.1767   87.8661    9.9576 C.ar    1  UNL1        0.0469
     36 C          61.5993   86.5075    9.4828 C.ar    1  UNL1        0.0511
     37 N          60.2756   88.7112    9.1068 N.pl3   1  UNL1       -0.3060
     38 C          59.8529   90.0698    9.5816 C.3     1  UNL1        0.0912
     39 C          60.3313   90.5834   10.9074 C.3     1  UNL1        0.0261
     40 C          61.2324   89.7383   11.7582 C.3     1  UNL1        0.0294
     41 C          59.7972   88.1978    7.7811 C.3     1  UNL1        0.1120
     42 C          58.9346   89.0613    6.9093 C.3     1  UNL1        0.1108
     43 N          59.5533   90.1548    6.0899 N.am    1  UNL1       -0.3026
     44 C          58.6794   91.1255    5.3523 C.2     1  UNL1        0.2230
     45 C          59.2981   92.2190    4.5329 C.3     1  UNL1        0.0946
     46 O          57.1867   91.0026    5.4341 O.2     1  UNL1       -0.2751
     47 H          60.5331   90.2355    6.0362 H       1  UNL1        0.1495
@<TRIPOS>BOND
     1    27    28    1
     2    28    21    1
     3    21    22   ar
     4    22    23   ar
     5    23    24   ar
     6    24    25   ar
     7    25    26   ar
     8    26    20    1
     9    20    19    1
    10    19    18    1
    11    18    17    1
    12    17    16    1
    13    16    15    1
    14    15     9    1
    15     9    10   ar
    16    10    11   ar
    17    11    12   ar
    18    12     1    1
    19     1     2   am
    20     2     3    2
    21     2     4    1
    22     4     5    1
    23     5     6    1
    24     6     7    1
    25     7    29    1
    26    29    30    1
    27    30    31    1
    28    31    32   ar
    29    32    33   ar
    30    33    34   ar
    31    34    35   ar
    32    35    36   ar
    33    35    37    1
    34    37    41    1
    35    41    42    1
    36    42    43    1
    37    43    44   am
    38    44    45    1
    39    44    46    2
    40    37    38    1
    41    38    39    1
    42    39    40    1
    43    12    13   ar
    44    13    14   ar
    45    26    21   ar
    46    14     9   ar
    47     7     1    1
    48    36    31   ar
    49    40    34    1
    50     5     8    1
    51    43    47    1
@<TRIPOS>MOLECULE
*****
 47 51 0 0 0
SMALL
GASTEIGER

@<TRIPOS>ATOM
      1 N          62.8488   86.4933   12.2582 N.am    1  UNL1       -0.2541
      2 C          63.0575   85.0790   12.7120 C.2     1  UNL1        0.2456
      3 O          62.4328   83.9472   11.9512 O.2     1  UNL1       -0.2730
      4 C          63.8910   84.7963   13.9267 C.3     1  UNL1        0.1555
      5 N          64.5158   85.9280   14.6875 N.3     1  UNL1       -0.2883
      6 C          64.3071   87.3423   14.2337 C.3     1  UNL1        0.0932
      7 C          63.4736   87.6250   13.0190 C.3     1  UNL1        0.1390
      8 H          65.5225   85.7637   14.6858 H       1  UNL1        0.1237
      9 C          60.3484   87.3413    8.6142 C.ar    1  UNL1        0.1386
     10 C          59.8685   87.7694    9.9693 C.ar    1  UNL1        0.0382
     11 C          60.7020   87.4868   11.1839 C.ar    1  UNL1        0.0180
     12 C          62.0154   86.7760   11.0435 C.ar    1  UNL1        0.0542
     13 C          62.4953   86.3478    9.6884 C.ar    1  UNL1        0.0180
     14 C          61.6618   86.6305    8.4737 C.ar    1  UNL1        0.0382
     15 O          59.5149   87.6239    7.3995 O.3     1  UNL1       -0.4754
     16 C          58.9838   89.0060    7.1594 C.3     1  UNL1        0.2080
     17 C          59.3732   89.7542    5.9190 C.3     1  UNL1        0.0794
     18 C          58.6987   91.0511    5.5826 C.3     1  UNL1        0.1465
     19 O          58.8567   91.6458    4.2146 O.3     1  UNL1       -0.3488
     20 C          59.9756   92.6061    3.9389 C.3     1  UNL1        0.1716
     21 C          61.8951   92.6251    2.1882 C.ar    1  UNL1        0.1370
     22 C          62.3680   92.8417    0.7813 C.ar    1  UNL1        0.0367
     23 C          61.3943   93.2560   -0.2818 C.ar    1  UNL1        0.0031
     24 C          59.9476   93.4536    0.0619 C.ar    1  UNL1       -0.0000
     25 C          59.4747   93.2370    1.4688 C.ar    1  UNL1        0.0012
     26 C          60.4485   92.8227    2.5320 C.ar    1  UNL1        0.0413
     27 C          63.4404   90.8240    3.2456 C.3     1  UNL1        0.2525
     28 O          62.8689   92.2108    3.2513 O.3     1  UNL1       -0.4717
     29 C          63.2649   89.0394   12.5652 C.3     1  UNL1        0.2267
     30 O          62.9516   90.1103   13.5677 O.3     1  UNL1       -0.4736
     31 C          64.0648   90.8163   14.2836 C.ar    1  UNL1        0.1398
     32 C          63.8723   91.2801   15.6970 C.ar    1  UNL1        0.0367
     33 C          64.9855   91.9862   16.4128 C.ar    1  UNL1        0.0001
     34 C          66.2911   92.2284   15.7151 C.ar    1  UNL1       -0.0086
     35 C          66.4836   91.7646   14.3017 C.ar    1  UNL1        0.0469
     36 C          65.3704   91.0586   13.5859 C.ar    1  UNL1        0.0511
     37 N          67.7892   92.0069   13.6041 N.pl3   1  UNL1       -0.3060
     38 C          68.9023   92.7129   14.3198 C.3     1  UNL1        0.0912
     39 C          68.7099   93.1767   15.7333 C.3     1  UNL1        0.0261
     40 C          67.4043   92.9345   16.4310 C.3     1  UNL1        0.0294
     41 C          67.9816   91.5431   12.1906 C.3     1  UNL1        0.1120
     42 C          67.6236   92.4478   11.0491 C.3     1  UNL1        0.1108
     43 N          66.7306   93.6304   11.2809 N.am    1  UNL1       -0.3026
     44 C          66.9278   94.8867   10.4854 C.2     1  UNL1        0.2230
     45 C          66.0347   96.0693   10.7173 C.3     1  UNL1        0.0946
     46 O          68.0181   94.9603    9.4579 O.2     1  UNL1       -0.2751
     47 H          66.0149   93.5821   11.9553 H       1  UNL1        0.1495
@<TRIPOS>BOND
     1    27    28    1
     2    28    21    1
     3    21    22   ar
     4    22    23   ar
     5    23    24   ar
     6    24    25   ar
     7    25    26   ar
     8    26    20    1
     9    20    19    1
    10    19    18    1
    11    18    17    1
    12    17    16    1
    13    16    15    1
    14    15     9    1
    15     9    10   ar
    16    10    11   ar
    17    11    12   ar
    18    12     1    1
    19     1     2   am
    20     2     3    2
    21     2     4    1
    22     4     5    1
    23     5     6    1
    24     6     7    1
    25     7    29    1
    26    29    30    1
    27    30    31    1
    28    31    32   ar
    29    32    33   ar
    30    33    34   ar
    31    34    35   ar
    32    35    36   ar
    33    35    37    1
    34    37    41    1
    35    41    42    1
    36    42    43    1
    37    43    44   am
    38    44    45    1
    39    44    46    2
    40    37    38    1
    41    38    39    1
    42    39    40    1
    43    12    13   ar
    44    13    14   ar
    45    26    21   ar
    46    14     9   ar
    47     7     1    1
    48    36    31   ar
    49    40    34    1
    50     5     8    1
    51    43    47    1
@<TRIPOS>MOLECULE
*****
 47 51 0 0 0
SMALL
GASTEIGER

@<TRIPOS>ATOM
      1 N          63.3763   83.0170   12.6603 N.am    1  UNL1       -0.2541
      2 C          62.7296   81.9562   13.5006 C.2     1  UNL1        0.2456
      3 O          62.3933   82.2371   14.9353 O.2     1  UNL1       -0.2730
      4 C          62.4190   80.6143   12.9065 C.3     1  UNL1        0.1555
      5 N          62.7552   80.3334   11.4719 N.3     1  UNL1       -0.2883
      6 C          63.4019   81.3942   10.6316 C.3     1  UNL1        0.0932
      7 C          63.7125   82.7360   11.2257 C.3     1  UNL1        0.1390
      8 H          61.8819   80.0824   11.0085 H       1  UNL1        0.1237
      9 C          64.3080   87.0425   14.4428 C.ar    1  UNL1        0.1386
     10 C          63.4008   86.9411   13.2526 C.ar    1  UNL1        0.0382
     11 C          63.0903   85.5993   12.6584 C.ar    1  UNL1        0.0180
     12 C          63.6869   84.3588   13.2545 C.ar    1  UNL1        0.0542
     13 C          64.5940   84.4602   14.4447 C.ar    1  UNL1        0.0180
     14 C          64.9046   85.8021   15.0389 C.ar    1  UNL1        0.0382
     15 O          64.6185   88.3843   15.0370 O.3     1  UNL1       -0.4754
     16 C          64.0984   89.6315   14.3858 C.3     1  UNL1        0.2080
     17 C          64.2856   90.9609   15.0548 C.3     1  UNL1        0.0794
     18 C          65.4337   91.8430   14.6623 C.3     1  UNL1        0.1465
     19 O          65.7402   92.0741   13.2122 O.3     1  UNL1       -0.3488
     20 C          67.1127   92.5141   12.7967 C.3     1  UNL1        0.1716
     21 C          66.9170   94.2324   10.8578 C.ar    1  UNL1        0.1370
     22 C          67.1813   94.6186    9.4327 C.ar    1  UNL1        0.0367
     23 C          67.9058   93.6729    8.5214 C.ar    1  UNL1        0.0031
     24 C          68.3660   92.3408    9.0351 C.ar    1  UNL1       -0.0000
     25 C          68.1016   91.9545   10.4602 C.ar    1  UNL1        0.0012
     26 C          67.3771   92.9004   11.3716 C.ar    1  UNL1        0.0413
     27 C          65.9648   96.5996   11.3475 C.3     1  UNL1        0.2525
     28 O          66.1924   95.1782   11.7692 O.3     1  UNL1       -0.4717
     29 C          64.3593   83.7969   10.3853 C.3     1  UNL1        0.2267
     30 O          64.0224   83.9082    8.9279 O.3     1  UNL1       -0.4736
     31 C          62.8577   84.7456    8.4891 C.ar    1  UNL1        0.1398
     32 C          61.8824   84.2066    7.4851 C.ar    1  UNL1        0.0367
     33 C          60.7179   85.0440    7.0463 C.ar    1  UNL1        0.0001
     34 C          60.5286   86.4204    7.6117 C.ar    1  UNL1       -0.0086
     35 C          61.5039   86.9594    8.6157 C.ar    1  UNL1        0.0469
     36 C          62.6685   86.1220    9.0545 C.ar    1  UNL1        0.0511
     37 N          61.3146   88.3359    9.1811 N.pl3   1  UNL1       -0.3060
     38 C          60.1501   89.1733    8.7424 C.3     1  UNL1        0.0912
     39 C          59.1747   88.6342    7.7383 C.3     1  UNL1        0.0261
     40 C          59.3640   87.2578    7.1729 C.3     1  UNL1        0.0294
     41 C          62.2899   88.8749   10.1851 C.3     1  UNL1        0.1120
     42 C          61.7911   89.5791   11.4120 C.3     1  UNL1        0.1108
     43 N          60.6682   88.9881   12.2117 N.am    1  UNL1       -0.3026
     44 C          59.3275   89.6604   12.2328 C.2     1  UNL1        0.2230
     45 C          58.2045   89.0694   13.0324 C.3     1  UNL1        0.0946
     46 O          59.1098   90.9239   11.4542 O.2     1  UNL1       -0.2751
     47 H          60.8111   88.1588   12.7227 H       1  UNL1        0.1495
@<TRIPOS>BOND
     1    27    28    1
     2    28    21    1
     3    21    22   ar
     4    22    23   ar
     5    23    24   ar
     6    24    25   ar
     7    25    26   ar
     8    26    20    1
     9    20    19    1
    10    19    18    1
    11    18    17    1
    12    17    16    1
    13    16    15    1
    14    15     9    1
    15     9    10   ar
    16    10    11   ar
    17    11    12   ar
    18    12     1    1
    19     1     2   am
    20     2     3    2
    21     2     4    1
    22     4     5    1
    23     5     6    1
    24     6     7    1
    25     7    29    1
    26    29    30    1
    27    30    31    1
    28    31    32   ar
    29    32    33   ar
    30    33    34   ar
    31    34    35   ar
    32    35    36   ar
    33    35    37    1
    34    37    41    1
    35    41    42    1
    36    42    43    1
    37    43    44   am
    38    44    45    1
    39    44    46    2
    40    37    38    1
    41    38    39    1
    42    39    40    1
    43    12    13   ar
    44    13    14   ar
    45    26    21   ar
    46    14     9   ar
    47     7     1    1
    48    36    31   ar
    49    40    34    1
    50     5     8    1
    51    43    47    1
@<TRIPOS>MOLECULE
*****
 47 51 0 0 0
SMALL
GASTEIGER

@<TRIPOS>ATOM
      1 N          63.2263   82.1196   12.7423 N.am    1  UNL1       -0.2541
      2 C          62.8838   80.7170   13.1490 C.2     1  UNL1        0.2456
      3 O          62.6856   80.3834   14.5980 O.2     1  UNL1       -0.2730
      4 C          62.7395   79.6479   12.1067 C.3     1  UNL1        0.1555
      5 N          62.9377   79.9814   10.6578 N.3     1  UNL1       -0.2883
      6 C          63.2802   81.3840   10.2511 C.3     1  UNL1        0.0932
      7 C          63.4245   82.4531   11.2933 C.3     1  UNL1        0.1390
      8 H          62.0705   79.7393   10.1786 H       1  UNL1        0.1237
      9 C          63.6591   85.3268   15.8690 C.ar    1  UNL1        0.1386
     10 C          62.3534   84.6059   15.7098 C.ar    1  UNL1        0.0382
     11 C          62.2091   83.5368   14.6675 C.ar    1  UNL1        0.0180
     12 C          63.3706   83.1886   13.7845 C.ar    1  UNL1        0.0542
     13 C          64.6763   83.9095   13.9437 C.ar    1  UNL1        0.0180
     14 C          64.8206   84.9786   14.9860 C.ar    1  UNL1        0.0382
     15 O          63.8034   86.3958   16.9112 O.3     1  UNL1       -0.4754
     16 C          62.7451   87.4487   17.0571 C.3     1  UNL1        0.2080
     17 C          63.0128   88.8504   16.5949 C.3     1  UNL1        0.0794
     18 C          63.8654   89.0910   15.3844 C.3     1  UNL1        0.1465
     19 O          63.9325   90.4597   14.7743 O.3     1  UNL1       -0.3488
     20 C          65.2633   91.0780   14.4637 C.3     1  UNL1        0.1716
     21 C          66.7496   92.5238   12.8983 C.ar    1  UNL1        0.1370
     22 C          66.9741   93.1959   11.5762 C.ar    1  UNL1        0.0367
     23 C          65.9369   93.0943   10.4975 C.ar    1  UNL1        0.0031
     24 C          64.6750   92.3205   10.7408 C.ar    1  UNL1       -0.0000
     25 C          64.4505   91.6484   12.0628 C.ar    1  UNL1        0.0012
     26 C          65.4878   91.7501   13.1416 C.ar    1  UNL1        0.0413
     27 C          67.6307   93.6357   15.0749 C.3     1  UNL1        0.2525
     28 O          67.7869   92.6255   13.9771 O.3     1  UNL1       -0.4717
     29 C          63.7670   83.8557   10.8866 C.3     1  UNL1        0.2267
     30 O          63.7783   84.2341    9.4352 O.3     1  UNL1       -0.4736
     31 C          62.6904   85.1039    8.8783 C.ar    1  UNL1        0.1398
     32 C          61.7717   84.5703    7.8195 C.ar    1  UNL1        0.0367
     33 C          60.6839   85.4400    7.2626 C.ar    1  UNL1        0.0001
     34 C          60.5147   86.8433    7.7647 C.ar    1  UNL1       -0.0086
     35 C          61.4334   87.3769    8.8235 C.ar    1  UNL1        0.0469
     36 C          62.5213   86.5072    9.3803 C.ar    1  UNL1        0.0511
     37 N          61.2643   88.7803    9.3255 N.pl3   1  UNL1       -0.3060
     38 C          60.1765   89.6500    8.7687 C.3     1  UNL1        0.0912
     39 C          59.2577   89.1164    7.7098 C.3     1  UNL1        0.0261
     40 C          59.4268   87.7131    7.2078 C.3     1  UNL1        0.0294
     41 C          62.1830   89.3139   10.3843 C.3     1  UNL1        0.1120
     42 C          61.6183   89.8532   11.6651 C.3     1  UNL1        0.1108
     43 N          60.5360   89.1022   12.3825 N.am    1  UNL1       -0.3026
     44 C          59.1323   89.6309   12.3864 C.2     1  UNL1        0.2230
     45 C          58.0500   88.8799   13.1038 C.3     1  UNL1        0.0946
     46 O          58.8108   90.9105   11.6730 O.2     1  UNL1       -0.2751
     47 H          60.7470   88.2623   12.8507 H       1  UNL1        0.1495
@<TRIPOS>BOND
     1    27    28    1
     2    28    21    1
     3    21    22   ar
     4    22    23   ar
     5    23    24   ar
     6    24    25   ar
     7    25    26   ar
     8    26    20    1
     9    20    19    1
    10    19    18    1
    11    18    17    1
    12    17    16    1
    13    16    15    1
    14    15     9    1
    15     9    10   ar
    16    10    11   ar
    17    11    12   ar
    18    12     1    1
    19     1     2   am
    20     2     3    2
    21     2     4    1
    22     4     5    1
    23     5     6    1
    24     6     7    1
    25     7    29    1
    26    29    30    1
    27    30    31    1
    28    31    32   ar
    29    32    33   ar
    30    33    34   ar
    31    34    35   ar
    32    35    36   ar
    33    35    37    1
    34    37    41    1
    35    41    42    1
    36    42    43    1
    37    43    44   am
    38    44    45    1
    39    44    46    2
    40    37    38    1
    41    38    39    1
    42    39    40    1
    43    12    13   ar
    44    13    14   ar
    45    26    21   ar
    46    14     9   ar
    47     7     1    1
    48    36    31   ar
    49    40    34    1
    50     5     8    1
    51    43    47    1
@<TRIPOS>MOLECULE
*****
 47 51 0 0 0
SMALL
GASTEIGER

@<TRIPOS>ATOM
      1 N          63.2112   84.3254   13.5734 N.am    1  UNL1       -0.2541
      2 C          62.5003   83.6279   14.6950 C.2     1  UNL1        0.2456
      3 O          62.1242   84.3881   15.9323 O.2     1  UNL1       -0.2730
      4 C          62.1655   82.1703   14.5795 C.3     1  UNL1        0.1555
      5 N          62.5416   81.4102   13.3423 N.3     1  UNL1       -0.2883
      6 C          63.2525   82.1077   12.2206 C.3     1  UNL1        0.0932
      7 C          63.5873   83.5652   12.3362 C.3     1  UNL1        0.1390
      8 H          61.6769   81.0336   12.9538 H       1  UNL1        0.1237
      9 C          64.2156   88.6981   13.9200 C.ar    1  UNL1        0.1386
     10 C          64.6195   87.7473   15.0075 C.ar    1  UNL1        0.0382
     11 C          64.2847   86.2898   14.8920 C.ar    1  UNL1        0.0180
     12 C          63.5460   85.7830   13.6889 C.ar    1  UNL1        0.0542
     13 C          63.1421   86.7338   12.6014 C.ar    1  UNL1        0.0180
     14 C          63.4769   88.1914   12.7169 C.ar    1  UNL1        0.0382
     15 O          64.5504   90.1557   14.0355 O.3     1  UNL1       -0.4754
     16 C          65.6841   90.5976   14.9127 C.3     1  UNL1        0.2080
     17 C          66.6996   91.5712   14.3923 C.3     1  UNL1        0.0794
     18 C          66.6148   93.0193   14.7741 C.3     1  UNL1        0.1465
     19 O          66.4167   94.0636   13.7157 O.3     1  UNL1       -0.3488
     20 C          65.8089   93.6887   12.3966 C.3     1  UNL1        0.1716
     21 C          66.9241   94.7719   10.3151 C.ar    1  UNL1        0.1370
     22 C          67.7908   94.6537    9.0965 C.ar    1  UNL1        0.0367
     23 C          68.4088   93.3341    8.7408 C.ar    1  UNL1        0.0031
     24 C          68.1602   92.1326    9.6038 C.ar    1  UNL1       -0.0000
     25 C          67.2936   92.2508   10.8224 C.ar    1  UNL1        0.0012
     26 C          66.6755   93.5705   11.1780 C.ar    1  UNL1        0.0413
     27 C          65.0403   96.5327    9.9976 C.3     1  UNL1        0.2525
     28 O          66.3061   96.0917   10.6707 O.3     1  UNL1       -0.4717
     29 C          64.2982   84.2627   11.2144 C.3     1  UNL1        0.2267
     30 O          64.0043   83.8878    9.7921 O.3     1  UNL1       -0.4736
     31 C          62.9297   84.6085    9.0332 C.ar    1  UNL1        0.1398
     32 C          62.6879   84.2874    7.5881 C.ar    1  UNL1        0.0367
     33 C          61.6134   85.0082    6.8293 C.ar    1  UNL1        0.0001
     34 C          60.7806   86.0500    7.5156 C.ar    1  UNL1       -0.0086
     35 C          61.0224   86.3711    8.9607 C.ar    1  UNL1        0.0469
     36 C          62.0969   85.6504    9.7195 C.ar    1  UNL1        0.0511
     37 N          60.1896   87.4130    9.6470 N.pl3   1  UNL1       -0.3060
     38 C          59.1150   88.1337    8.8882 C.3     1  UNL1        0.0912
     39 C          58.8732   87.8126    7.4430 C.3     1  UNL1        0.0261
     40 C          59.7060   86.7707    6.7567 C.3     1  UNL1        0.0294
     41 C          60.4313   87.7341   11.0921 C.3     1  UNL1        0.1120
     42 C          60.1092   89.1003   11.6209 C.3     1  UNL1        0.1108
     43 N          61.2138   90.0751   11.9030 N.am    1  UNL1       -0.3026
     44 C          62.1280   90.5131   10.7974 C.2     1  UNL1        0.2230
     45 C          63.2327   91.4878   11.0795 C.3     1  UNL1        0.0946
     46 O          61.9376   89.9764    9.4098 O.2     1  UNL1       -0.2751
     47 H          61.3388   90.4274   12.8138 H       1  UNL1        0.1495
@<TRIPOS>BOND
     1    27    28    1
     2    28    21    1
     3    21    22   ar
     4    22    23   ar
     5    23    24   ar
     6    24    25   ar
     7    25    26   ar
     8    26    20    1
     9    20    19    1
    10    19    18    1
    11    18    17    1
    12    17    16    1
    13    16    15    1
    14    15     9    1
    15     9    10   ar
    16    10    11   ar
    17    11    12   ar
    18    12     1    1
    19     1     2   am
    20     2     3    2
    21     2     4    1
    22     4     5    1
    23     5     6    1
    24     6     7    1
    25     7    29    1
    26    29    30    1
    27    30    31    1
    28    31    32   ar
    29    32    33   ar
    30    33    34   ar
    31    34    35   ar
    32    35    36   ar
    33    35    37    1
    34    37    41    1
    35    41    42    1
    36    42    43    1
    37    43    44   am
    38    44    45    1
    39    44    46    2
    40    37    38    1
    41    38    39    1
    42    39    40    1
    43    12    13   ar
    44    13    14   ar
    45    26    21   ar
    46    14     9   ar
    47     7     1    1
    48    36    31   ar
    49    40    34    1
    50     5     8    1
    51    43    47    1
@<TRIPOS>MOLECULE
*****
 47 51 0 0 0
SMALL
GASTEIGER

@<TRIPOS>ATOM
      1 N          62.9655   85.0793   11.3416 N.am    1  UNL1       -0.2541
      2 C          63.6225   83.7494   11.1193 C.2     1  UNL1        0.2456
      3 O          63.4027   83.0100    9.8327 O.2     1  UNL1       -0.2730
      4 C          64.4993   83.1587   12.1834 C.3     1  UNL1        0.1555
      5 N          64.7190   83.8980   13.4699 N.3     1  UNL1       -0.2883
      6 C          64.0620   85.2280   13.6922 C.3     1  UNL1        0.0932
      7 C          63.1852   85.8186   12.6281 C.3     1  UNL1        0.1390
      8 H          65.7243   84.0483   13.5551 H       1  UNL1        0.1237
      9 C          60.3352   86.8513    8.1492 C.ar    1  UNL1        0.1386
     10 C          61.5386   86.0423    7.7658 C.ar    1  UNL1        0.0382
     11 C          62.4154   85.4516    8.8299 C.ar    1  UNL1        0.0180
     12 C          62.0887   85.6700   10.2775 C.ar    1  UNL1        0.0542
     13 C          60.8853   86.4791   10.6609 C.ar    1  UNL1        0.0180
     14 C          60.0085   87.0697    9.5968 C.ar    1  UNL1        0.0382
     15 O          59.4584   87.4420    7.0851 O.3     1  UNL1       -0.4754
     16 C          59.1256   88.9043    7.1137 C.3     1  UNL1        0.2080
     17 C          59.4867   89.7786    5.9496 C.3     1  UNL1        0.0794
     18 C          58.6022   90.9304    5.5739 C.3     1  UNL1        0.1465
     19 O          59.2077   92.2119    5.0827 O.3     1  UNL1       -0.3488
     20 C          59.4118   92.4299    3.6128 C.3     1  UNL1        0.1716
     21 C          61.1347   93.5276    2.0076 C.ar    1  UNL1        0.1370
     22 C          62.5237   93.6010    1.4460 C.ar    1  UNL1        0.0367
     23 C          63.5787   92.6499    1.9280 C.ar    1  UNL1        0.0031
     24 C          63.2448   91.6254    2.9716 C.ar    1  UNL1       -0.0000
     25 C          61.8558   91.5521    3.5332 C.ar    1  UNL1        0.0012
     26 C          60.8008   92.5032    3.0512 C.ar    1  UNL1        0.0413
     27 C          60.1954   95.1008    0.1656 C.3     1  UNL1        0.2525
     28 O          60.0796   94.4788    1.5256 O.3     1  UNL1       -0.4717
     29 C          62.5282   87.1487   12.8505 C.3     1  UNL1        0.2267
     30 O          63.0898   88.3801   12.2038 O.3     1  UNL1       -0.4736
     31 C          63.8671   89.3687   13.0215 C.ar    1  UNL1        0.1398
     32 C          64.1579   89.0839   14.4652 C.ar    1  UNL1        0.0367
     33 C          64.9352   90.0725   15.2828 C.ar    1  UNL1        0.0001
     34 C          65.4217   91.3458   14.6567 C.ar    1  UNL1       -0.0086
     35 C          65.1310   91.6305   13.2130 C.ar    1  UNL1        0.0469
     36 C          64.3537   90.6419   12.3954 C.ar    1  UNL1        0.0511
     37 N          65.6175   92.9038   12.5868 N.pl3   1  UNL1       -0.3060
     38 C          66.3948   93.8923   13.4044 C.3     1  UNL1        0.0912
     39 C          66.6856   93.6076   14.8482 C.3     1  UNL1        0.0261
     40 C          66.1991   92.3343   15.4743 C.3     1  UNL1        0.0294
     41 C          65.3268   93.1885   11.1431 C.3     1  UNL1        0.1120
     42 C          66.2043   94.1301   10.3729 C.3     1  UNL1        0.1108
     43 N          67.0827   93.6079    9.2748 N.am    1  UNL1       -0.3026
     44 C          68.1829   92.6387    9.5912 C.2     1  UNL1        0.2230
     45 C          69.0613   92.1165    8.4932 C.3     1  UNL1        0.0946
     46 O          68.4047   92.1916   11.0057 O.2     1  UNL1       -0.2751
     47 H          66.9371   93.9014    8.3464 H       1  UNL1        0.1495
@<TRIPOS>BOND
     1    27    28    1
     2    28    21    1
     3    21    22   ar
     4    22    23   ar
     5    23    24   ar
     6    24    25   ar
     7    25    26   ar
     8    26    20    1
     9    20    19    1
    10    19    18    1
    11    18    17    1
    12    17    16    1
    13    16    15    1
    14    15     9    1
    15     9    10   ar
    16    10    11   ar
    17    11    12   ar
    18    12     1    1
    19     1     2   am
    20     2     3    2
    21     2     4    1
    22     4     5    1
    23     5     6    1
    24     6     7    1
    25     7    29    1
    26    29    30    1
    27    30    31    1
    28    31    32   ar
    29    32    33   ar
    30    33    34   ar
    31    34    35   ar
    32    35    36   ar
    33    35    37    1
    34    37    41    1
    35    41    42    1
    36    42    43    1
    37    43    44   am
    38    44    45    1
    39    44    46    2
    40    37    38    1
    41    38    39    1
    42    39    40    1
    43    12    13   ar
    44    13    14   ar
    45    26    21   ar
    46    14     9   ar
    47     7     1    1
    48    36    31   ar
    49    40    34    1
    50     5     8    1
    51    43    47    1
