@<TRIPOS>MOLECULE
*****
 33 37 0 0 0
SMALL
GASTEIGER

@<TRIPOS>ATOM
      1 C          63.6035   88.3190   15.5205 C.3     1  UNL1        0.2246
      2 C          63.7739   86.8461   15.2937 C.2     1  UNL1        0.0436
      3 C          63.5078   85.8797   16.4097 C.2     1  UNL1        0.0288
      4 C          63.0712   86.3862   17.7524 C.2     1  UNL1        0.0896
      5 N          62.9008   87.8592   17.9792 N.am    1  UNL1       -0.1770
      6 C          63.1669   88.8255   16.8632 C.2     1  UNL1        0.2627
      7 O          62.9965   90.2984   17.0899 O.2     1  UNL1       -0.2719
      8 C          62.2660   90.4000   10.1385 C.3     1  UNL1        0.0312
      9 C          63.3878   91.0047   10.9297 C.2     1  UNL1        0.0136
     10 C          64.1791   92.1440   10.3589 C.2     1  UNL1        0.0107
     11 C          65.3008   92.7487   11.1501 C.2     1  UNL1        0.0510
     12 C          65.6312   92.2142   12.5122 C.2     1  UNL1        0.0613
     13 C          64.8399   91.0749   13.0830 C.2     1  UNL1        0.2246
     14 N          64.9335   90.3427   14.3888 N.2     1  UNL1       -0.0378
     15 C          63.8696   89.2854   14.4046 C.2     1  UNL1        0.3605
     16 N          63.1185   89.3642   13.1086 N.2     1  UNL1       -0.0547
     17 C          63.7182   90.4701   12.2917 C.3     1  UNL1        0.2976
     18 N          66.0921   93.8881   10.5793 N.pl3   1  UNL1       -0.3027
     19 C          67.1304   93.6278    9.5284 C.3     1  UNL1        0.1231
     20 C          67.9217   94.7671    8.9576 C.3     1  UNL1        0.1636
     21 O          67.6748   96.1666    9.4376 O.3     1  UNL1       -0.3501
     22 C          66.6365   96.4268   10.4885 C.3     1  UNL1        0.1636
     23 C          65.8452   95.2875   11.0593 C.3     1  UNL1        0.1231
     24 N          64.2105   86.3395   13.9511 N.pl3   1  UNL1       -0.3335
     25 H          64.9068   86.8190   13.4466 H       1  UNL1        0.1466
     26 C          63.5862   85.1023   13.3769 C.3     1  UNL1        0.1136
     27 C          64.1985   83.7595   13.6453 C.3     1  UNL1        0.1486
     28 N          63.3406   82.5291   13.6377 N.ar    1  UNL1       -0.2468
     29 C          61.9201   82.4417   14.1114 C.ar    1  UNL1        0.1081
     30 C          61.4542   81.0286   13.9214 C.ar    1  UNL1        0.0972
     31 CL         60.0944   80.4951   14.2627 Cl      1  UNL1       -0.0789
     32 C          62.5868   80.2426   13.3304 C.ar    1  UNL1        0.1330
     33 N          63.7527   81.1699   13.1550 N.ar    1  UNL1       -0.1667
@<TRIPOS>BOND
     1     8     9    1
     2     9    10    2
     3    10    11    1
     4    11    18    1
     5    18    19    1
     6    19    20    1
     7    20    21    1
     8    21    22    1
     9    22    23    1
    10    11    12    2
    11    12    13    1
    12    13    14    2
    13    14    15    1
    14    15     1    1
    15     1     2    1
    16     2    24    1
    17    24    26    1
    18    26    27    1
    19    27    28    1
    20    28    29   ar
    21    29    30   ar
    22    30    31    1
    23    30    32   ar
    24    32    33   ar
    25     2     3    2
    26     3     4    1
    27     4     5    2
    28     5     6    1
    29     6     7    2
    30    15    16    2
    31    16    17    1
    32    17     9    1
    33    23    18    1
    34    17    13    1
    35     6     1    1
    36    33    28   ar
    37    24    25    1
@<TRIPOS>MOLECULE
*****
 33 37 0 0 0
SMALL
GASTEIGER

@<TRIPOS>ATOM
      1 C          63.5882   88.2943   15.5382 C.3     1  UNL1        0.2246
      2 C          63.7410   86.8187   15.3168 C.2     1  UNL1        0.0436
      3 C          63.4753   85.8603   16.4398 C.2     1  UNL1        0.0288
      4 C          63.0569   86.3776   17.7842 C.2     1  UNL1        0.0896
      5 N          62.9041   87.8533   18.0056 N.am    1  UNL1       -0.1770
      6 C          63.1698   88.8116   16.8826 C.2     1  UNL1        0.2627
      7 O          63.0170   90.2873   17.1040 O.2     1  UNL1       -0.2719
      8 C          62.2660   90.3189   10.1310 C.3     1  UNL1        0.0312
      9 C          63.3793   90.9381   10.9229 C.2     1  UNL1        0.0136
     10 C          64.1660   92.0777   10.3464 C.2     1  UNL1        0.0107
     11 C          65.2793   92.6969   11.1382 C.2     1  UNL1        0.0510
     12 C          65.6059   92.1766   12.5066 C.2     1  UNL1        0.0613
     13 C          64.8192   91.0370   13.0832 C.2     1  UNL1        0.2246
     14 N          64.9107   90.3170   14.3959 N.2     1  UNL1       -0.0378
     15 C          63.8538   89.2527   14.4153 C.2     1  UNL1        0.3605
     16 N          63.1093   89.3150   13.1146 N.2     1  UNL1       -0.0547
     17 C          63.7059   90.4178   12.2913 C.3     1  UNL1        0.2976
     18 N          66.0660   93.8366   10.5616 N.pl3   1  UNL1       -0.3027
     19 C          67.1460   93.5692    9.5554 C.3     1  UNL1        0.1231
     20 C          67.9327   94.7088    8.9789 C.3     1  UNL1        0.1636
     21 O          67.6394   96.1157    9.4084 O.3     1  UNL1       -0.3501
     22 C          66.5595   96.3831   10.4145 C.3     1  UNL1        0.1636
     23 C          65.7728   95.2435   10.9911 C.3     1  UNL1        0.1231
     24 N          64.1594   86.3013   13.9725 N.pl3   1  UNL1       -0.3335
     25 H          64.3860   86.9318   13.2511 H       1  UNL1        0.1466
     26 C          64.2326   84.8233   13.7272 C.3     1  UNL1        0.1136
     27 C          63.2679   84.1713   12.7815 C.3     1  UNL1        0.1486
     28 N          62.5725   84.9916   11.7358 N.ar    1  UNL1       -0.2468
     29 C          62.6963   84.8163   10.2513 C.ar    1  UNL1        0.1081
     30 C          61.8315   85.8476    9.5890 C.ar    1  UNL1        0.0972
     31 CL         61.6558   86.0335    8.1110 Cl      1  UNL1       -0.0789
     32 C          61.1732   86.6603   10.6642 C.ar    1  UNL1        0.1330
     33 N          61.6312   86.1313   11.9911 N.ar    1  UNL1       -0.1667
@<TRIPOS>BOND
     1     8     9    1
     2     9    10    2
     3    10    11    1
     4    11    18    1
     5    18    19    1
     6    19    20    1
     7    20    21    1
     8    21    22    1
     9    22    23    1
    10    11    12    2
    11    12    13    1
    12    13    14    2
    13    14    15    1
    14    15     1    1
    15     1     2    1
    16     2    24    1
    17    24    26    1
    18    26    27    1
    19    27    28    1
    20    28    29   ar
    21    29    30   ar
    22    30    31    1
    23    30    32   ar
    24    32    33   ar
    25     2     3    2
    26     3     4    1
    27     4     5    2
    28     5     6    1
    29     6     7    2
    30    15    16    2
    31    16    17    1
    32    17     9    1
    33    23    18    1
    34    17    13    1
    35     6     1    1
    36    33    28   ar
    37    24    25    1
@<TRIPOS>MOLECULE
*****
 33 37 0 0 0
SMALL
GASTEIGER

@<TRIPOS>ATOM
      1 C          61.0658   87.9769    9.6601 C.3     1  UNL1        0.2246
      2 C          61.1413   86.5327    9.2619 C.2     1  UNL1        0.0436
      3 C          60.2114   85.9936    8.2156 C.2     1  UNL1        0.0288
      4 C          59.2060   86.8987    7.5674 C.2     1  UNL1        0.0896
      5 N          59.1306   88.3429    7.9656 N.am    1  UNL1       -0.1770
      6 C          60.0605   88.8820    9.0119 C.2     1  UNL1        0.2627
      7 O          59.9850   90.3262    9.4101 O.2     1  UNL1       -0.2719
      8 C          64.0124   87.2366   14.7448 C.3     1  UNL1        0.0312
      9 C          64.1220   88.5245   13.9837 C.2     1  UNL1        0.0136
     10 C          64.9821   89.6353   14.5093 C.2     1  UNL1        0.0107
     11 C          65.0918   90.9232   13.7483 C.2     1  UNL1        0.0510
     12 C          64.3414   91.1003   12.4615 C.2     1  UNL1        0.0613
     13 C          63.4813   89.9895   11.9360 C.2     1  UNL1        0.2246
     14 N          62.6309   89.8748   10.7057 N.2     1  UNL1       -0.0378
     15 C          61.9956   88.5160   10.7064 C.2     1  UNL1        0.3605
     16 N          62.4534   87.7909   11.9371 N.2     1  UNL1       -0.0547
     17 C          63.3716   88.7016   12.6970 C.3     1  UNL1        0.2976
     18 N          65.9520   92.0341   14.2739 N.pl3   1  UNL1       -0.3027
     19 C          66.6564   91.8791   15.5891 C.3     1  UNL1        0.1231
     20 C          67.5165   92.9899   16.1148 C.3     1  UNL1        0.1636
     21 O          67.6722   94.2557   15.3251 O.3     1  UNL1       -0.3501
     22 C          66.9678   94.4107   14.0099 C.3     1  UNL1        0.1636
     23 C          66.1077   93.2999   13.4843 C.3     1  UNL1        0.1231
     24 N          62.1465   85.6275    9.9100 N.pl3   1  UNL1       -0.3335
     25 H          62.1737   85.5441   10.8906 H       1  UNL1        0.1466
     26 C          63.1104   84.8494    9.0642 C.3     1  UNL1        0.1136
     27 C          63.8619   83.6931    9.6542 C.3     1  UNL1        0.1486
     28 N          63.4339   83.1135   10.9699 N.ar    1  UNL1       -0.2468
     29 C          63.1343   81.6690   11.2412 C.ar    1  UNL1        0.1081
     30 C          62.7457   81.5394   12.6843 C.ar    1  UNL1        0.0972
     31 CL         62.3646   80.2685   13.3840 Cl      1  UNL1       -0.0789
     32 C          62.8051   82.9037   13.3047 C.ar    1  UNL1        0.1330
     33 N          63.2305   83.8766   12.2451 N.ar    1  UNL1       -0.1667
@<TRIPOS>BOND
     1     8     9    1
     2     9    10    2
     3    10    11    1
     4    11    18    1
     5    18    19    1
     6    19    20    1
     7    20    21    1
     8    21    22    1
     9    22    23    1
    10    11    12    2
    11    12    13    1
    12    13    14    2
    13    14    15    1
    14    15     1    1
    15     1     2    1
    16     2    24    1
    17    24    26    1
    18    26    27    1
    19    27    28    1
    20    28    29   ar
    21    29    30   ar
    22    30    31    1
    23    30    32   ar
    24    32    33   ar
    25     2     3    2
    26     3     4    1
    27     4     5    2
    28     5     6    1
    29     6     7    2
    30    15    16    2
    31    16    17    1
    32    17     9    1
    33    23    18    1
    34    17    13    1
    35     6     1    1
    36    33    28   ar
    37    24    25    1
@<TRIPOS>MOLECULE
*****
 33 37 0 0 0
SMALL
GASTEIGER

@<TRIPOS>ATOM
      1 C          63.0693   83.3785   13.3231 C.3     1  UNL1        0.2246
      2 C          63.5569   82.5960   12.1399 C.2     1  UNL1        0.0436
      3 C          63.3127   81.1179   12.0661 C.2     1  UNL1        0.0288
      4 C          62.5809   80.4222   13.1754 C.2     1  UNL1        0.0896
      5 N          62.0933   81.2047   14.3586 N.am    1  UNL1       -0.1770
      6 C          62.3375   82.6829   14.4324 C.2     1  UNL1        0.2627
      7 O          61.8498   83.4654   15.6156 O.2     1  UNL1       -0.2719
      8 C          62.4474   88.7813   10.9763 C.3     1  UNL1        0.0312
      9 C          63.1740   88.5964   12.2755 C.2     1  UNL1        0.0136
     10 C          63.7487   89.7840   12.9891 C.2     1  UNL1        0.0107
     11 C          64.4753   89.5991   14.2882 C.2     1  UNL1        0.0510
     12 C          64.6272   88.2264   14.8739 C.2     1  UNL1        0.0613
     13 C          64.0524   87.0388   14.1603 C.2     1  UNL1        0.2246
     14 N          64.0448   85.5759   14.4915 N.2     1  UNL1       -0.0378
     15 C          63.3134   84.8567   13.3970 C.2     1  UNL1        0.3605
     16 N          62.8691   85.8751   12.3893 N.2     1  UNL1       -0.0547
     17 C          63.3259   87.2238   12.8611 C.3     1  UNL1        0.2976
     18 N          65.0500   90.7868   15.0018 N.pl3   1  UNL1       -0.3027
     19 C          64.2934   91.4220   16.1305 C.3     1  UNL1        0.1231
     20 C          64.8681   92.6096   16.8441 C.3     1  UNL1        0.1636
     21 O          66.1995   93.1620   16.4290 O.3     1  UNL1       -0.3501
     22 C          66.9561   92.5268   15.3003 C.3     1  UNL1        0.1636
     23 C          66.3814   91.3392   14.5867 C.3     1  UNL1        0.1231
     24 N          64.2887   83.2916   11.0306 N.pl3   1  UNL1       -0.3335
     25 H          65.1989   83.6354   11.1811 H       1  UNL1        0.1466
     26 C          63.6338   83.4635    9.6922 C.3     1  UNL1        0.1136
     27 C          63.5274   84.8283    9.0790 C.3     1  UNL1        0.1486
     28 N          62.2636   85.2424    8.3853 N.ar    1  UNL1       -0.2468
     29 C          61.1751   86.0929    8.9698 C.ar    1  UNL1        0.1081
     30 C          60.1051   86.2548    7.9311 C.ar    1  UNL1        0.0972
     31 CL         58.8315   87.0309    8.0908 Cl      1  UNL1       -0.0789
     32 C          60.5323   85.5044    6.7046 C.ar    1  UNL1        0.1330
     33 N          61.8664   84.8786    6.9853 N.ar    1  UNL1       -0.1667
@<TRIPOS>BOND
     1     8     9    1
     2     9    10    2
     3    10    11    1
     4    11    18    1
     5    18    19    1
     6    19    20    1
     7    20    21    1
     8    21    22    1
     9    22    23    1
    10    11    12    2
    11    12    13    1
    12    13    14    2
    13    14    15    1
    14    15     1    1
    15     1     2    1
    16     2    24    1
    17    24    26    1
    18    26    27    1
    19    27    28    1
    20    28    29   ar
    21    29    30   ar
    22    30    31    1
    23    30    32   ar
    24    32    33   ar
    25     2     3    2
    26     3     4    1
    27     4     5    2
    28     5     6    1
    29     6     7    2
    30    15    16    2
    31    16    17    1
    32    17     9    1
    33    23    18    1
    34    17    13    1
    35     6     1    1
    36    33    28   ar
    37    24    25    1
