@<TRIPOS>MOLECULE
*****
 36 39 0 0 0
SMALL
GASTEIGER

@<TRIPOS>ATOM
      1 N          59.8367   94.4401    0.8367 N.am    1  UNL1       -0.2533
      2 C          59.8657   93.2905    1.7996 C.2     1  UNL1        0.3092
      3 O          60.3142   91.9358    1.3370 O.2     1  UNL1       -0.2521
      4 N          59.4462   93.4952    3.2251 N.am    1  UNL1       -0.2680
      5 H          59.5424   95.3292    1.1403 H       1  UNL1        0.1578
      6 H          59.1518   94.3843    3.5287 H       1  UNL1        0.1564
      7 C          59.4752   92.3454    4.1880 C.ar    1  UNL1        0.0516
      8 C          58.2027   91.8637    4.8195 C.ar    1  UNL1        0.0148
      9 C          58.2317   90.7139    5.7823 C.ar    1  UNL1        0.0043
     10 C          59.5331   90.0458    6.1138 C.ar    1  UNL1        0.0360
     11 C          60.8055   90.5275    5.4823 C.ar    1  UNL1        0.0043
     12 C          60.7766   91.6773    4.5194 C.ar    1  UNL1        0.0148
     13 C          59.5620   88.8960    7.0767 C.ar    1  UNL1        0.1668
     14 N          59.0275   87.5180    6.8208 N.ar    1  UNL1       -0.1282
     15 N          59.2658   86.6927    8.0505 N.ar    1  UNL1       -0.1224
     16 C          59.9475   87.5606    9.0663 C.ar    1  UNL1        0.1896
     17 S          60.3717   87.1406   10.4424 S.3     1  UNL1       -0.1034
     18 N          60.1307   88.9224    8.4644 N.ar    1  UNL1       -0.2886
     19 C          60.7701   90.1031    9.1330 C.3     1  UNL1        0.1340
     20 H          60.0430   85.8357   10.6396 H       1  UNL1        0.1101
     21 N          59.3607   94.3051   -1.7901 N.ar    1  UNL1       -0.2162
     22 N          60.1959   94.0378   -3.0070 N.ar    1  UNL1       -0.1683
     23 C          61.6077   93.8028   -2.5578 C.ar    1  UNL1        0.0810
     24 C          61.6449   93.9250   -1.0633 C.ar    1  UNL1        0.0509
     25 C          60.2562   94.2354   -0.5888 C.ar    1  UNL1        0.1380
     26 C          53.4715   95.4520   -1.7370 C.3     1  UNL1        0.0310
     27 C          54.9438   95.1652   -1.7503 C.ar    1  UNL1       -0.0218
     28 C          55.4314   93.7489   -1.8278 C.ar    1  UNL1       -0.0027
     29 C          56.9037   93.4621   -1.8411 C.ar    1  UNL1        0.0189
     30 C          57.8884   94.5918   -1.7768 C.ar    1  UNL1        0.0842
     31 C          57.4008   96.0082   -1.6993 C.ar    1  UNL1        0.0189
     32 C          55.9285   96.2949   -1.6861 C.ar    1  UNL1       -0.0027
     33 C          62.7768   93.4991   -3.4471 C.3     1  UNL1        0.0372
     34 C          63.5796   93.0840   -2.2499 C.3     1  UNL1        0.0060
     35 C          61.9741   93.9141   -4.6443 C.3     1  UNL1        0.0060
     36 C          63.9460   93.1953   -4.3363 C.3     1  UNL1        0.0060
@<TRIPOS>BOND
     1    26    27    1
     2    27    28   ar
     3    28    29   ar
     4    29    30   ar
     5    30    21    1
     6    21    22   ar
     7    22    23   ar
     8    23    33    1
     9    33    34    1
    10    33    35    1
    11    33    36    1
    12    23    24   ar
    13    24    25   ar
    14    25     1    1
    15     1     2   am
    16     2     3    2
    17     2     4   am
    18     4     7    1
    19     7     8   ar
    20     8     9   ar
    21     9    10   ar
    22    10    13    1
    23    13    14   ar
    24    14    15   ar
    25    15    16   ar
    26    16    17    1
    27    16    18   ar
    28    18    19    1
    29    10    11   ar
    30    11    12   ar
    31    30    31   ar
    32    31    32   ar
    33    32    27   ar
    34    25    21   ar
    35    12     7   ar
    36    18    13   ar
    37     1     5    1
    38     4     6    1
    39    17    20    1
@<TRIPOS>MOLECULE
*****
 36 39 0 0 0
SMALL
GASTEIGER

@<TRIPOS>ATOM
      1 N          60.3045   94.6770    1.4106 N.am    1  UNL1       -0.2533
      2 C          60.3964   93.5558    2.4027 C.2     1  UNL1        0.3092
      3 O          61.6444   92.7276    2.4851 O.2     1  UNL1       -0.2521
      4 N          59.2404   93.2627    3.3126 N.am    1  UNL1       -0.2680
      5 H          59.4854   95.2206    1.3566 H       1  UNL1        0.1578
      6 H          58.4213   93.8062    3.2586 H       1  UNL1        0.1564
      7 C          59.3324   92.1414    4.3047 C.ar    1  UNL1        0.0516
      8 C          58.0878   91.6041    4.9467 C.ar    1  UNL1        0.0148
      9 C          58.1798   90.4828    5.9388 C.ar    1  UNL1        0.0043
     10 C          59.5163   89.8989    6.2889 C.ar    1  UNL1        0.0360
     11 C          60.7609   90.4362    5.6469 C.ar    1  UNL1        0.0043
     12 C          60.6689   91.5575    4.6548 C.ar    1  UNL1        0.0148
     13 C          59.6083   88.7776    7.2811 C.ar    1  UNL1        0.1668
     14 N          59.1528   87.3655    7.0605 N.ar    1  UNL1       -0.1282
     15 N          59.4350   86.5868    8.3110 N.ar    1  UNL1       -0.1224
     16 C          60.0648   87.5175    9.3045 C.ar    1  UNL1        0.1896
     17 S          60.5094   87.1575   10.6911 S.3     1  UNL1       -0.1034
     18 N          60.1719   88.8716    8.6680 N.ar    1  UNL1       -0.2886
     19 C          60.7425   90.1032    9.3062 C.3     1  UNL1        0.1340
     20 H          60.2544   85.8416   10.9216 H       1  UNL1        0.1101
     21 N          61.5197   94.6827   -0.9702 N.ar    1  UNL1       -0.2162
     22 N          62.8560   95.1371   -1.4778 N.ar    1  UNL1       -0.1683
     23 C          63.6227   95.7055   -0.3206 C.ar    1  UNL1        0.0810
     24 C          62.7602   95.6023    0.9023 C.ar    1  UNL1        0.0509
     25 C          61.4605   94.9702    0.5008 C.ar    1  UNL1        0.1380
     26 C          57.1742   92.1581   -4.2480 C.3     1  UNL1        0.0310
     27 C          58.2606   92.7893   -3.4285 C.ar    1  UNL1       -0.0218
     28 C          58.4774   92.3556   -2.0091 C.ar    1  UNL1       -0.0027
     29 C          59.5638   92.9867   -1.1897 C.ar    1  UNL1        0.0189
     30 C          60.4333   94.0515   -1.7896 C.ar    1  UNL1        0.0842
     31 C          60.2165   94.4852   -3.2091 C.ar    1  UNL1        0.0189
     32 C          59.1301   93.8541   -4.0285 C.ar    1  UNL1       -0.0027
     33 C          65.0085   96.2767   -0.3765 C.3     1  UNL1        0.0372
     34 C          65.0257   96.0894   -1.8646 C.3     1  UNL1        0.0060
     35 C          64.9913   96.4640    1.1117 C.3     1  UNL1        0.0060
     36 C          66.3944   96.8479   -0.4324 C.3     1  UNL1        0.0060
@<TRIPOS>BOND
     1    26    27    1
     2    27    28   ar
     3    28    29   ar
     4    29    30   ar
     5    30    21    1
     6    21    22   ar
     7    22    23   ar
     8    23    33    1
     9    33    34    1
    10    33    35    1
    11    33    36    1
    12    23    24   ar
    13    24    25   ar
    14    25     1    1
    15     1     2   am
    16     2     3    2
    17     2     4   am
    18     4     7    1
    19     7     8   ar
    20     8     9   ar
    21     9    10   ar
    22    10    13    1
    23    13    14   ar
    24    14    15   ar
    25    15    16   ar
    26    16    17    1
    27    16    18   ar
    28    18    19    1
    29    10    11   ar
    30    11    12   ar
    31    30    31   ar
    32    31    32   ar
    33    32    27   ar
    34    25    21   ar
    35    12     7   ar
    36    18    13   ar
    37     1     5    1
    38     4     6    1
    39    17    20    1
@<TRIPOS>MOLECULE
*****
 36 39 0 0 0
SMALL
GASTEIGER

@<TRIPOS>ATOM
      1 N          63.0390   86.2533   14.5811 N.am    1  UNL1       -0.2533
      2 C          63.5763   87.4520   13.8571 C.2     1  UNL1        0.3092
      3 O          63.8876   87.3662   12.3922 O.2     1  UNL1       -0.2521
      4 N          63.8023   88.7367   14.5978 N.am    1  UNL1       -0.2680
      5 H          62.8347   86.3097   15.5425 H       1  UNL1        0.1578
      6 H          63.5980   88.7931   15.5592 H       1  UNL1        0.1564
      7 C          64.3396   89.9354   13.8737 C.ar    1  UNL1        0.0516
      8 C          65.5145   90.6836   14.4303 C.ar    1  UNL1        0.0148
      9 C          66.0518   91.8823   13.7062 C.ar    1  UNL1        0.0043
     10 C          65.4142   92.3329   12.4255 C.ar    1  UNL1        0.0360
     11 C          64.2393   91.5848   11.8688 C.ar    1  UNL1        0.0043
     12 C          63.7020   90.3861   12.5929 C.ar    1  UNL1        0.0148
     13 C          65.9515   93.5317   11.7014 C.ar    1  UNL1        0.1668
     14 N          65.7964   94.9616   12.1270 N.ar    1  UNL1       -0.1282
     15 N          66.4873   95.8246   11.1132 N.ar    1  UNL1       -0.1224
     16 C          67.0694   94.9281   10.0610 C.ar    1  UNL1        0.1896
     17 S          67.8463   95.3709    8.8566 S.3     1  UNL1       -0.1034
     18 N          66.7383   93.5109   10.4245 N.ar    1  UNL1       -0.2886
     19 C          67.1259   92.2878    9.6475 C.3     1  UNL1        0.1340
     20 H          67.9484   96.7270    8.8565 H       1  UNL1        0.1101
     21 N          62.2530   84.8364   12.4551 N.ar    1  UNL1       -0.2162
     22 N          62.2013   83.3768   12.1136 N.ar    1  UNL1       -0.1683
     23 C          62.7293   82.6069   13.2877 C.ar    1  UNL1        0.0810
     24 C          63.1074   83.5908   14.3550 C.ar    1  UNL1        0.0509
     25 C          62.8130   84.9687   13.8404 C.ar    1  UNL1        0.1380
     26 C          60.5238   89.3530    8.9040 C.3     1  UNL1        0.0310
     27 C          60.9561   88.2238    9.7918 C.ar    1  UNL1       -0.0218
     28 C          61.9345   87.2051    9.2869 C.ar    1  UNL1       -0.0027
     29 C          62.3668   86.0760   10.1747 C.ar    1  UNL1        0.0189
     30 C          61.8207   85.9656   11.5674 C.ar    1  UNL1        0.0842
     31 C          60.8424   86.9843   12.0722 C.ar    1  UNL1        0.0189
     32 C          60.4100   88.1134   11.1844 C.ar    1  UNL1       -0.0027
     33 C          62.8568   81.1151   13.3786 C.3     1  UNL1        0.0372
     34 C          64.2441   81.1993   12.8145 C.3     1  UNL1        0.0060
     35 C          61.4694   81.0309   13.9427 C.3     1  UNL1        0.0060
     36 C          62.9843   79.6233   13.4695 C.3     1  UNL1        0.0060
@<TRIPOS>BOND
     1    26    27    1
     2    27    28   ar
     3    28    29   ar
     4    29    30   ar
     5    30    21    1
     6    21    22   ar
     7    22    23   ar
     8    23    33    1
     9    33    34    1
    10    33    35    1
    11    33    36    1
    12    23    24   ar
    13    24    25   ar
    14    25     1    1
    15     1     2   am
    16     2     3    2
    17     2     4   am
    18     4     7    1
    19     7     8   ar
    20     8     9   ar
    21     9    10   ar
    22    10    13    1
    23    13    14   ar
    24    14    15   ar
    25    15    16   ar
    26    16    17    1
    27    16    18   ar
    28    18    19    1
    29    10    11   ar
    30    11    12   ar
    31    30    31   ar
    32    31    32   ar
    33    32    27   ar
    34    25    21   ar
    35    12     7   ar
    36    18    13   ar
    37     1     5    1
    38     4     6    1
    39    17    20    1
@<TRIPOS>MOLECULE
*****
 36 39 0 0 0
SMALL
GASTEIGER

@<TRIPOS>ATOM
      1 N          61.8895   85.6051   11.8825 N.am    1  UNL1       -0.2533
      2 C          62.7751   86.7261   12.3394 C.2     1  UNL1        0.3092
      3 O          63.9916   86.4317   13.1663 O.2     1  UNL1       -0.2521
      4 N          62.4445   88.1417   11.9694 N.am    1  UNL1       -0.2680
      5 H          61.0912   85.7983   11.3397 H       1  UNL1        0.1578
      6 H          61.6462   88.3350   11.4267 H       1  UNL1        0.1564
      7 C          63.3302   89.2627   12.4264 C.ar    1  UNL1        0.0516
      8 C          63.9545   89.2173   13.7895 C.ar    1  UNL1        0.0148
      9 C          64.8402   90.3384   14.2465 C.ar    1  UNL1        0.0043
     10 C          65.1016   91.5048   13.3404 C.ar    1  UNL1        0.0360
     11 C          64.4772   91.5502   11.9773 C.ar    1  UNL1        0.0043
     12 C          63.5915   90.4292   11.5203 C.ar    1  UNL1        0.0148
     13 C          65.9872   92.6259   13.7973 C.ar    1  UNL1        0.1668
     14 N          65.9096   94.0528   13.3414 N.ar    1  UNL1       -0.1282
     15 N          66.9804   94.8256   14.0527 N.ar    1  UNL1       -0.1224
     16 C          67.7199   93.8764   14.9483 C.ar    1  UNL1        0.1896
     17 S          68.8711   94.2254   15.8444 S.3     1  UNL1       -0.1034
     18 N          67.1060   92.5168   14.7905 N.ar    1  UNL1       -0.2886
     19 C          67.5356   91.2676   15.5010 C.3     1  UNL1        0.1340
     20 H          69.1526   95.5506   15.7255 H       1  UNL1        0.1101
     21 N          62.5500   83.6919   13.6285 N.ar    1  UNL1       -0.2162
     22 N          62.8127   82.2179   13.5377 N.ar    1  UNL1       -0.1683
     23 C          62.6453   81.8045   12.1055 C.ar    1  UNL1        0.0810
     24 C          62.2791   83.0231   11.3112 C.ar    1  UNL1        0.0509
     25 C          62.2202   84.1895   12.2524 C.ar    1  UNL1        0.1380
     26 C          62.7782   87.0141   18.6196 C.3     1  UNL1        0.0310
     27 C          62.7211   86.1836   17.3718 C.ar    1  UNL1       -0.0218
     28 C          61.4035   85.9225   16.7042 C.ar    1  UNL1       -0.0027
     29 C          61.3465   85.0920   15.4564 C.ar    1  UNL1        0.0189
     30 C          62.6070   84.5224   14.8763 C.ar    1  UNL1        0.0842
     31 C          63.9246   84.7835   15.5439 C.ar    1  UNL1        0.0189
     32 C          63.9817   85.6140   16.7917 C.ar    1  UNL1       -0.0027
     33 C          62.8144   80.4163   11.5630 C.3     1  UNL1        0.0372
     34 C          63.2046   80.9845   10.2308 C.3     1  UNL1        0.0060
     35 C          62.4242   79.8481   12.8953 C.3     1  UNL1        0.0060
     36 C          62.9835   79.0281   11.0205 C.3     1  UNL1        0.0060
@<TRIPOS>BOND
     1    26    27    1
     2    27    28   ar
     3    28    29   ar
     4    29    30   ar
     5    30    21    1
     6    21    22   ar
     7    22    23   ar
     8    23    33    1
     9    33    34    1
    10    33    35    1
    11    33    36    1
    12    23    24   ar
    13    24    25   ar
    14    25     1    1
    15     1     2   am
    16     2     3    2
    17     2     4   am
    18     4     7    1
    19     7     8   ar
    20     8     9   ar
    21     9    10   ar
    22    10    13    1
    23    13    14   ar
    24    14    15   ar
    25    15    16   ar
    26    16    17    1
    27    16    18   ar
    28    18    19    1
    29    10    11   ar
    30    11    12   ar
    31    30    31   ar
    32    31    32   ar
    33    32    27   ar
    34    25    21   ar
    35    12     7   ar
    36    18    13   ar
    37     1     5    1
    38     4     6    1
    39    17    20    1
@<TRIPOS>MOLECULE
*****
 36 39 0 0 0
SMALL
GASTEIGER

@<TRIPOS>ATOM
      1 N          63.8057   89.4189   15.6953 N.am    1  UNL1       -0.2533
      2 C          63.7680   88.0882   15.0042 C.2     1  UNL1        0.3092
      3 O          64.5401   87.8800   13.7351 O.2     1  UNL1       -0.2521
      4 N          62.9582   86.9656   15.5820 N.am    1  UNL1       -0.2680
      5 H          63.2989   89.5555   16.5283 H       1  UNL1        0.1578
      6 H          62.4514   87.1021   16.4149 H       1  UNL1        0.1564
      7 C          62.9205   85.6349   14.8908 C.ar    1  UNL1        0.0516
      8 C          62.4118   84.4258   15.6185 C.ar    1  UNL1        0.0148
      9 C          62.3742   83.0951   14.9272 C.ar    1  UNL1        0.0043
     10 C          62.8452   82.9734   13.5084 C.ar    1  UNL1        0.0360
     11 C          63.3538   84.1824   12.7807 C.ar    1  UNL1        0.0043
     12 C          63.3915   85.5131   13.4719 C.ar    1  UNL1        0.0148
     13 C          62.8075   81.6427   12.8171 C.ar    1  UNL1        0.1668
     14 N          62.4896   80.3245   13.4587 N.ar    1  UNL1       -0.1282
     15 N          62.5668   79.2637   12.4011 N.ar    1  UNL1       -0.1224
     16 C          62.9323   79.9261   11.1059 C.ar    1  UNL1        0.1896
     17 S          63.1167   79.2389    9.7853 S.3     1  UNL1       -0.1034
     18 N          63.0811   81.3965   11.3630 N.ar    1  UNL1       -0.2886
     19 C          63.4404   82.4377   10.3448 C.3     1  UNL1        0.1340
     20 H          62.9007   77.9045    9.9346 H       1  UNL1        0.1101
     21 N          64.4357   91.1496   13.7582 N.ar    1  UNL1       -0.2162
     22 N          65.4564   92.2371   13.5982 N.ar    1  UNL1       -0.1683
     23 C          66.2670   92.3011   14.8587 C.ar    1  UNL1        0.0810
     24 C          65.7473   91.2531   15.7977 C.ar    1  UNL1        0.0509
     25 C          64.6155   90.5415   15.1175 C.ar    1  UNL1        0.1380
     26 C          60.3508   89.5186    9.6772 C.3     1  UNL1        0.0310
     27 C          61.3721   89.9264   10.6975 C.ar    1  UNL1       -0.0218
     28 C          62.6561   90.5660   10.2593 C.ar    1  UNL1       -0.0027
     29 C          63.6773   90.9737   11.2795 C.ar    1  UNL1        0.0189
     30 C          63.4145   90.7419   12.7379 C.ar    1  UNL1        0.0842
     31 C          62.1304   90.1023   13.1761 C.ar    1  UNL1        0.0189
     32 C          61.1092   89.6945   12.1559 C.ar    1  UNL1       -0.0027
     33 C          67.3987   93.2469   15.1321 C.3     1  UNL1        0.0372
     34 C          67.9390   92.3021   16.1642 C.3     1  UNL1        0.0060
     35 C          66.8583   94.1917   14.0999 C.3     1  UNL1        0.0060
     36 C          68.5303   94.1928   15.4055 C.3     1  UNL1        0.0060
@<TRIPOS>BOND
     1    26    27    1
     2    27    28   ar
     3    28    29   ar
     4    29    30   ar
     5    30    21    1
     6    21    22   ar
     7    22    23   ar
     8    23    33    1
     9    33    34    1
    10    33    35    1
    11    33    36    1
    12    23    24   ar
    13    24    25   ar
    14    25     1    1
    15     1     2   am
    16     2     3    2
    17     2     4   am
    18     4     7    1
    19     7     8   ar
    20     8     9   ar
    21     9    10   ar
    22    10    13    1
    23    13    14   ar
    24    14    15   ar
    25    15    16   ar
    26    16    17    1
    27    16    18   ar
    28    18    19    1
    29    10    11   ar
    30    11    12   ar
    31    30    31   ar
    32    31    32   ar
    33    32    27   ar
    34    25    21   ar
    35    12     7   ar
    36    18    13   ar
    37     1     5    1
    38     4     6    1
    39    17    20    1
@<TRIPOS>MOLECULE
*****
 36 39 0 0 0
SMALL
GASTEIGER

@<TRIPOS>ATOM
      1 N          64.1048   92.8156   12.0991 N.am    1  UNL1       -0.2533
      2 C          64.1025   91.3218   11.9646 C.2     1  UNL1        0.3092
      3 O          65.1498   90.6419   11.1332 O.2     1  UNL1       -0.2521
      4 N          63.0530   90.5076   12.6614 N.am    1  UNL1       -0.2680
      5 H          63.4175   93.2618   12.6447 H       1  UNL1        0.1578
      6 H          62.3657   90.9537   13.2071 H       1  UNL1        0.1564
      7 C          63.0507   89.0136   12.5269 C.ar    1  UNL1        0.0516
      8 C          62.3339   88.3649   11.3800 C.ar    1  UNL1        0.0148
      9 C          62.3316   86.8710   11.2455 C.ar    1  UNL1        0.0043
     10 C          63.0462   86.0257   12.2578 C.ar    1  UNL1        0.0360
     11 C          63.7630   86.6743   13.4047 C.ar    1  UNL1        0.0043
     12 C          63.7653   88.1683   13.5392 C.ar    1  UNL1        0.0148
     13 C          63.0439   84.5317   12.1233 C.ar    1  UNL1        0.1668
     14 N          63.4190   83.7565   10.8951 N.ar    1  UNL1       -0.1282
     15 N          63.2731   82.2964   11.2061 N.ar    1  UNL1       -0.1224
     16 C          62.8078   82.1692   12.6264 C.ar    1  UNL1        0.1896
     17 S          62.5324   80.8858   13.3524 S.3     1  UNL1       -0.1034
     18 N          62.6661   83.5507   13.1933 N.ar    1  UNL1       -0.2886
     19 C          62.2243   83.8914   14.5856 C.3     1  UNL1        0.1340
     20 H          62.7699   79.8352   12.5220 H       1  UNL1        0.1101
     21 N          66.5554   93.8617   11.8853 N.ar    1  UNL1       -0.2162
     22 N          67.2539   94.7303   10.8815 N.ar    1  UNL1       -0.1683
     23 C          66.2847   95.0353    9.7781 C.ar    1  UNL1        0.0810
     24 C          64.9870   94.3552   10.0999 C.ar    1  UNL1        0.0509
     25 C          65.1543   93.6299   11.4022 C.ar    1  UNL1        0.1380
     26 C          68.9455   91.6951   16.9443 C.3     1  UNL1        0.0310
     27 C          68.3480   92.2367   15.6795 C.ar    1  UNL1       -0.0218
     28 C          67.3914   93.3907   15.7361 C.ar    1  UNL1       -0.0027
     29 C          66.7939   93.9324   14.4714 C.ar    1  UNL1        0.0189
     30 C          67.1529   93.3200   13.1500 C.ar    1  UNL1        0.0842
     31 C          68.1094   92.1660   13.0934 C.ar    1  UNL1        0.0189
     32 C          68.7070   91.6244   14.3581 C.ar    1  UNL1       -0.0027
     33 C          66.5640   95.8733    8.5658 C.3     1  UNL1        0.0372
     34 C          65.5163   96.8540    9.0022 C.3     1  UNL1        0.0060
     35 C          67.6117   94.8925    8.1293 C.3     1  UNL1        0.0060
     36 C          66.8434   96.7112    7.3535 C.3     1  UNL1        0.0060
@<TRIPOS>BOND
     1    26    27    1
     2    27    28   ar
     3    28    29   ar
     4    29    30   ar
     5    30    21    1
     6    21    22   ar
     7    22    23   ar
     8    23    33    1
     9    33    34    1
    10    33    35    1
    11    33    36    1
    12    23    24   ar
    13    24    25   ar
    14    25     1    1
    15     1     2   am
    16     2     3    2
    17     2     4   am
    18     4     7    1
    19     7     8   ar
    20     8     9   ar
    21     9    10   ar
    22    10    13    1
    23    13    14   ar
    24    14    15   ar
    25    15    16   ar
    26    16    17    1
    27    16    18   ar
    28    18    19    1
    29    10    11   ar
    30    11    12   ar
    31    30    31   ar
    32    31    32   ar
    33    32    27   ar
    34    25    21   ar
    35    12     7   ar
    36    18    13   ar
    37     1     5    1
    38     4     6    1
    39    17    20    1
@<TRIPOS>MOLECULE
*****
 36 39 0 0 0
SMALL
GASTEIGER

@<TRIPOS>ATOM
      1 N          64.1739   89.8350   14.2184 N.am    1  UNL1       -0.2533
      2 C          63.9603   88.4156   13.7830 C.2     1  UNL1        0.3092
      3 O          63.9469   88.0730   12.3226 O.2     1  UNL1       -0.2521
      4 N          63.7599   87.3387   14.8078 N.am    1  UNL1       -0.2680
      5 H          64.1827   90.0598   15.1769 H       1  UNL1        0.1578
      6 H          63.7687   87.5635   15.7662 H       1  UNL1        0.1564
      7 C          63.5463   85.9194   14.3722 C.ar    1  UNL1        0.0516
      8 C          63.9093   84.7903   15.2906 C.ar    1  UNL1        0.0148
      9 C          63.6957   83.3709   14.8551 C.ar    1  UNL1        0.0043
     10 C          63.1190   83.0805   13.5012 C.ar    1  UNL1        0.0360
     11 C          62.7559   84.2096   12.5828 C.ar    1  UNL1        0.0043
     12 C          62.9695   85.6290   13.0184 C.ar    1  UNL1        0.0148
     13 C          62.9053   81.6611   13.0656 C.ar    1  UNL1        0.1668
     14 N          62.4790   80.5236   13.9455 N.ar    1  UNL1       -0.1282
     15 N          62.3906   79.2895   13.0974 N.ar    1  UNL1       -0.1224
     16 C          62.7624   79.6644   11.6934 C.ar    1  UNL1        0.1896
     17 S          62.8080   78.7364   10.5158 S.3     1  UNL1       -0.1034
     18 N          63.0805   81.1302   11.6738 N.ar    1  UNL1       -0.2886
     19 C          63.5000   81.9253   10.4731 C.3     1  UNL1        0.1340
     20 H          62.4574   77.4835   10.9120 H       1  UNL1        0.1101
     21 N          63.6243   91.0504   11.9020 N.ar    1  UNL1       -0.2162
     22 N          64.1463   92.2635   11.1908 N.ar    1  UNL1       -0.1683
     23 C          65.2189   92.8747   12.0428 C.ar    1  UNL1        0.0810
     24 C          65.3598   92.0394   13.2807 C.ar    1  UNL1        0.0509
     25 C          64.3743   90.9119   13.1937 C.ar    1  UNL1        0.1380
     26 C          59.2962   87.3941    9.9274 C.3     1  UNL1        0.0310
     27 C          60.3782   88.3081   10.4210 C.ar    1  UNL1       -0.0218
     28 C          61.6820   88.3935    9.6843 C.ar    1  UNL1       -0.0027
     29 C          62.7640   89.3076   10.1779 C.ar    1  UNL1        0.0189
     30 C          62.5422   90.1363   11.4084 C.ar    1  UNL1        0.0842
     31 C          61.2385   90.0509   12.1451 C.ar    1  UNL1        0.0189
     32 C          60.1565   89.1368   11.6515 C.ar    1  UNL1       -0.0027
     33 C          66.0114   94.1052   11.7146 C.3     1  UNL1        0.0372
     34 C          66.4425   94.2098   13.1474 C.3     1  UNL1        0.0060
     35 C          65.5803   94.0006   10.2817 C.3     1  UNL1        0.0060
     36 C          66.8039   95.3357   11.3863 C.3     1  UNL1        0.0060
@<TRIPOS>BOND
     1    26    27    1
     2    27    28   ar
     3    28    29   ar
     4    29    30   ar
     5    30    21    1
     6    21    22   ar
     7    22    23   ar
     8    23    33    1
     9    33    34    1
    10    33    35    1
    11    33    36    1
    12    23    24   ar
    13    24    25   ar
    14    25     1    1
    15     1     2   am
    16     2     3    2
    17     2     4   am
    18     4     7    1
    19     7     8   ar
    20     8     9   ar
    21     9    10   ar
    22    10    13    1
    23    13    14   ar
    24    14    15   ar
    25    15    16   ar
    26    16    17    1
    27    16    18   ar
    28    18    19    1
    29    10    11   ar
    30    11    12   ar
    31    30    31   ar
    32    31    32   ar
    33    32    27   ar
    34    25    21   ar
    35    12     7   ar
    36    18    13   ar
    37     1     5    1
    38     4     6    1
    39    17    20    1
@<TRIPOS>MOLECULE
*****
 36 39 0 0 0
SMALL
GASTEIGER

@<TRIPOS>ATOM
      1 N          59.3833   94.4738    1.2633 N.am    1  UNL1       -0.2533
      2 C          59.5596   93.2884    2.1653 C.2     1  UNL1        0.3092
      3 O          60.3234   92.0892    1.6871 O.2     1  UNL1       -0.2521
      4 N          58.9722   93.3020    3.5454 N.am    1  UNL1       -0.2680
      5 H          58.8820   95.2608    1.5772 H       1  UNL1        0.1578
      6 H          58.4709   94.0891    3.8593 H       1  UNL1        0.1564
      7 C          59.1486   92.1165    4.4474 C.ar    1  UNL1        0.0516
      8 C          60.5204   91.5663    4.7032 C.ar    1  UNL1        0.0148
      9 C          60.6968   90.3808    5.6051 C.ar    1  UNL1        0.0043
     10 C          59.5015   89.7455    6.2512 C.ar    1  UNL1        0.0360
     11 C          58.1297   90.2957    5.9954 C.ar    1  UNL1        0.0043
     12 C          57.9533   91.4812    5.0935 C.ar    1  UNL1        0.0148
     13 C          59.6779   88.5600    7.1532 C.ar    1  UNL1        0.1668
     14 N          59.2966   87.1448    6.8340 N.ar    1  UNL1       -0.1282
     15 N          59.6496   86.2918    8.0162 N.ar    1  UNL1       -0.1224
     16 C          60.2491   87.1797    9.0660 C.ar    1  UNL1        0.1896
     17 S          60.7443   86.7425   10.4128 S.3     1  UNL1       -0.1034
     18 N          60.2666   88.5816    8.5326 N.ar    1  UNL1       -0.2886
     19 C          60.7823   89.7924    9.2523 C.3     1  UNL1        0.1340
     20 H          60.5679   85.4007   10.5469 H       1  UNL1        0.1101
     21 N          61.3935   94.7748   -0.4726 N.ar    1  UNL1       -0.2162
     22 N          61.5404   94.6386   -1.9591 N.ar    1  UNL1       -0.1683
     23 C          60.2085   94.2398   -2.5221 C.ar    1  UNL1        0.0810
     24 C          59.2383   94.1295   -1.3834 C.ar    1  UNL1        0.0509
     25 C          59.9706   94.4602   -0.1168 C.ar    1  UNL1        0.1380
     26 C          65.7345   96.3089    3.3748 C.3     1  UNL1        0.0310
     27 C          64.6492   95.9254    2.4129 C.ar    1  UNL1       -0.0218
     28 C          64.7163   94.6121    1.6912 C.ar    1  UNL1       -0.0027
     29 C          63.6311   94.2286    0.7294 C.ar    1  UNL1        0.0189
     30 C          62.4787   95.1583    0.4892 C.ar    1  UNL1        0.0842
     31 C          62.4116   96.4715    1.2110 C.ar    1  UNL1        0.0189
     32 C          63.4969   96.8550    2.1728 C.ar    1  UNL1       -0.0027
     33 C          59.9008   93.9943   -3.9695 C.3     1  UNL1        0.0372
     34 C          61.2930   94.4151   -4.3368 C.3     1  UNL1        0.0060
     35 C          58.5087   93.5736   -3.6023 C.3     1  UNL1        0.0060
     36 C          59.5931   93.7489   -5.4170 C.3     1  UNL1        0.0060
@<TRIPOS>BOND
     1    26    27    1
     2    27    28   ar
     3    28    29   ar
     4    29    30   ar
     5    30    21    1
     6    21    22   ar
     7    22    23   ar
     8    23    33    1
     9    33    34    1
    10    33    35    1
    11    33    36    1
    12    23    24   ar
    13    24    25   ar
    14    25     1    1
    15     1     2   am
    16     2     3    2
    17     2     4   am
    18     4     7    1
    19     7     8   ar
    20     8     9   ar
    21     9    10   ar
    22    10    13    1
    23    13    14   ar
    24    14    15   ar
    25    15    16   ar
    26    16    17    1
    27    16    18   ar
    28    18    19    1
    29    10    11   ar
    30    11    12   ar
    31    30    31   ar
    32    31    32   ar
    33    32    27   ar
    34    25    21   ar
    35    12     7   ar
    36    18    13   ar
    37     1     5    1
    38     4     6    1
    39    17    20    1
@<TRIPOS>MOLECULE
*****
 36 39 0 0 0
SMALL
GASTEIGER

@<TRIPOS>ATOM
      1 N          60.4409   89.0120   11.0056 N.am    1  UNL1       -0.2533
      2 C          61.7019   89.6048   11.5608 C.2     1  UNL1        0.3092
      3 O          62.7732   90.0939   10.6316 O.2     1  UNL1       -0.2521
      4 N          61.8918   89.7087   13.0451 N.am    1  UNL1       -0.2680
      5 H          59.7378   88.6911   11.6155 H       1  UNL1        0.1578
      6 H          61.1887   89.3878   13.6549 H       1  UNL1        0.1564
      7 C          63.1529   90.3016   13.6002 C.ar    1  UNL1        0.0516
      8 C          64.1187   90.9986   12.6884 C.ar    1  UNL1        0.0148
      9 C          65.3798   91.5915   13.2435 C.ar    1  UNL1        0.0043
     10 C          65.6752   91.4873   14.7104 C.ar    1  UNL1        0.0360
     11 C          64.7094   90.7902   15.6222 C.ar    1  UNL1        0.0043
     12 C          63.4483   90.1974   15.0671 C.ar    1  UNL1        0.0148
     13 C          66.9363   92.0802   15.2655 C.ar    1  UNL1        0.1668
     14 N          67.9101   91.3893   16.1735 N.ar    1  UNL1       -0.1282
     15 N          69.0206   92.3501   16.4792 N.ar    1  UNL1       -0.1224
     16 C          68.7332   93.6348   15.7602 C.ar    1  UNL1        0.1896
     17 S          69.5845   94.8696   15.7867 S.3     1  UNL1       -0.1034
     18 N          67.4449   93.4680   15.0101 N.ar    1  UNL1       -0.2886
     19 C          66.7818   94.5065   14.1547 C.3     1  UNL1        0.1340
     20 H          70.6742   94.6522   16.5709 H       1  UNL1        0.1101
     21 N          60.7540   87.8008    8.6434 N.ar    1  UNL1       -0.2162
     22 N          60.3386   88.1017    7.2339 N.ar    1  UNL1       -0.1683
     23 C          59.5788   89.3951    7.2406 C.ar    1  UNL1        0.0810
     24 C          59.5247   89.8935    8.6543 C.ar    1  UNL1        0.0509
     25 C          60.2510   88.9082    9.5213 C.ar    1  UNL1        0.1380
     26 C          63.8791   83.0090   10.4525 C.3     1  UNL1        0.0310
     27 C          63.0979   84.2070   10.0002 C.ar    1  UNL1       -0.0218
     28 C          63.1649   84.6493    8.5686 C.ar    1  UNL1       -0.0027
     29 C          62.3836   85.8472    8.1163 C.ar    1  UNL1        0.0189
     30 C          61.5353   86.6029    9.0957 C.ar    1  UNL1        0.0842
     31 C          61.4683   86.1605   10.5274 C.ar    1  UNL1        0.0189
     32 C          62.2495   84.9626   10.9797 C.ar    1  UNL1       -0.0027
     33 C          58.9786   90.0712    6.0437 C.3     1  UNL1        0.0372
     34 C          57.6122   89.6351    6.4826 C.3     1  UNL1        0.0060
     35 C          60.3451   90.5074    5.6049 C.3     1  UNL1        0.0060
     36 C          58.3784   90.7474    4.8468 C.3     1  UNL1        0.0060
@<TRIPOS>BOND
     1    26    27    1
     2    27    28   ar
     3    28    29   ar
     4    29    30   ar
     5    30    21    1
     6    21    22   ar
     7    22    23   ar
     8    23    33    1
     9    33    34    1
    10    33    35    1
    11    33    36    1
    12    23    24   ar
    13    24    25   ar
    14    25     1    1
    15     1     2   am
    16     2     3    2
    17     2     4   am
    18     4     7    1
    19     7     8   ar
    20     8     9   ar
    21     9    10   ar
    22    10    13    1
    23    13    14   ar
    24    14    15   ar
    25    15    16   ar
    26    16    17    1
    27    16    18   ar
    28    18    19    1
    29    10    11   ar
    30    11    12   ar
    31    30    31   ar
    32    31    32   ar
    33    32    27   ar
    34    25    21   ar
    35    12     7   ar
    36    18    13   ar
    37     1     5    1
    38     4     6    1
    39    17    20    1
