@<TRIPOS>MOLECULE
*****
 33 36 0 0 0
SMALL
GASTEIGER

@<TRIPOS>ATOM
      1 C          63.8197   89.0226   13.5707 C.2     1  UNL1        0.2335
      2 O          64.5685   89.3841   14.8192 O.2     1  UNL1       -0.2742
      3 N          63.6684   87.5830   13.1771 N.am    1  UNL1       -0.2755
      4 C          62.9196   87.2215   11.9287 C.3     1  UNL1        0.1148
      5 C          62.7684   85.7820   11.5351 C.3     1  UNL1        0.1123
      6 N          63.3660   84.7040   12.3899 N.pl3   1  UNL1       -0.3041
      7 C          64.1148   85.0655   13.6384 C.3     1  UNL1        0.1123
      8 C          64.2661   86.5050   14.0320 C.3     1  UNL1        0.1148
      9 C          63.2147   83.2645   11.9963 C.ar    1  UNL1        0.0479
     10 C          63.6253   82.8146   10.6256 C.ar    1  UNL1        0.0145
     11 C          63.4740   81.3751   10.2320 C.ar    1  UNL1        0.0051
     12 C          62.9123   80.3854   11.2092 C.ar    1  UNL1        0.0715
     13 C          62.5017   80.8353   12.5800 C.ar    1  UNL1        0.0051
     14 C          62.6529   82.2748   12.9736 C.ar    1  UNL1        0.0145
     15 C          62.7610   78.9459   10.8156 C.3     1  UNL1        0.4186
     16 F          62.6098   77.5064   10.4220 F       1  UNL1       -0.1659
     17 F          62.4497   78.5895   12.2390 F       1  UNL1       -0.1659
     18 F          63.0723   79.3024    9.3922 F       1  UNL1       -0.1659
     19 C          63.2221   90.1006   12.7159 C.3     1  UNL1        0.1226
     20 C          65.7944   93.4829   11.2349 C.ar    1  UNL1        0.0684
     21 C          64.9049   92.7434   10.2800 C.ar    1  UNL1        0.0100
     22 C          64.0475   91.6160   10.7736 C.ar    1  UNL1       -0.0028
     23 C          64.0796   91.2280   12.2222 C.ar    1  UNL1       -0.0097
     24 C          64.9690   91.9675   13.1771 C.ar    1  UNL1       -0.0028
     25 C          65.8265   93.0949   12.6835 C.ar    1  UNL1        0.0100
     26 N          67.5093   95.7378   10.2476 N.1     1  UNL1       -0.1908
     27 C          66.6519   94.6103   10.7412 C.1     1  UNL1        0.1004
     28 C          61.7671   90.0512   12.3547 C.ar    1  UNL1        0.0094
     29 C          61.3172   90.4891   10.9924 C.ar    1  UNL1       -0.0004
     30 C          59.8622   90.4397   10.6312 C.ar    1  UNL1        0.0204
     31 C          58.8571   89.9523   11.6323 C.ar    1  UNL1        0.0989
     32 N          59.3069   89.5144   12.9946 N.ar    1  UNL1       -0.2426
     33 C          60.7620   89.5638   13.3558 C.ar    1  UNL1        0.0954
@<TRIPOS>BOND
     1    26    27    3
     2    27    20    1
     3    20    21   ar
     4    21    22   ar
     5    22    23   ar
     6    23    19    1
     7    19     1    1
     8     1     2    2
     9     1     3   am
    10     3     4    1
    11     4     5    1
    12     5     6    1
    13     6     9    1
    14     9    10   ar
    15    10    11   ar
    16    11    12   ar
    17    12    15    1
    18    15    16    1
    19    15    17    1
    20    15    18    1
    21    12    13   ar
    22    13    14   ar
    23     6     7    1
    24     7     8    1
    25    19    28    1
    26    28    29   ar
    27    29    30   ar
    28    30    31   ar
    29    31    32   ar
    30    32    33   ar
    31    23    24   ar
    32    24    25   ar
    33    25    20   ar
    34     8     3    1
    35    33    28   ar
    36    14     9   ar
@<TRIPOS>MOLECULE
*****
 33 36 0 0 0
SMALL
GASTEIGER

@<TRIPOS>ATOM
      1 C          63.6699   88.6008   15.3148 C.2     1  UNL1        0.2335
      2 O          63.5774   88.7382   16.8057 O.2     1  UNL1       -0.2742
      3 N          63.5411   87.2494   14.6768 N.am    1  UNL1       -0.2755
      4 C          63.6336   87.1119   13.1860 C.3     1  UNL1        0.1148
      5 C          63.5048   85.7605   12.5480 C.3     1  UNL1        0.1123
      6 N          63.2834   84.5465   13.4008 N.pl3   1  UNL1       -0.3041
      7 C          63.1909   84.6840   14.8916 C.3     1  UNL1        0.1123
      8 C          63.3197   86.0354   15.5297 C.3     1  UNL1        0.1148
      9 C          63.1546   83.1951   12.7628 C.ar    1  UNL1        0.0479
     10 C          63.5135   83.0105   11.3181 C.ar    1  UNL1        0.0145
     11 C          63.3846   81.6591   10.6801 C.ar    1  UNL1        0.0051
     12 C          62.8969   80.4923   11.4867 C.ar    1  UNL1        0.0715
     13 C          62.5380   80.6769   12.9315 C.ar    1  UNL1        0.0051
     14 C          62.6668   82.0283   13.5695 C.ar    1  UNL1        0.0145
     15 C          62.7681   79.1409   10.8487 C.3     1  UNL1        0.4186
     16 F          62.6393   77.7894   10.2107 F       1  UNL1       -0.1659
     17 F          63.0012   79.7552    9.5003 F       1  UNL1       -0.1659
     18 F          62.5350   78.5265   12.1971 F       1  UNL1       -0.1659
     19 C          63.8913   89.8147   14.4621 C.3     1  UNL1        0.1226
     20 C          67.0962   92.7785   15.5552 C.ar    1  UNL1        0.0684
     21 C          65.8095   92.7469   16.3256 C.ar    1  UNL1        0.0100
     22 C          64.7412   91.7590   15.9612 C.ar    1  UNL1       -0.0028
     23 C          64.9596   90.8027   14.8264 C.ar    1  UNL1       -0.0097
     24 C          66.2462   90.8343   14.0561 C.ar    1  UNL1       -0.0028
     25 C          67.3145   91.8222   14.4205 C.ar    1  UNL1        0.0100
     26 N          69.2328   94.7543   16.2840 N.1     1  UNL1       -0.1908
     27 C          68.1645   93.7664   15.9196 C.1     1  UNL1        0.1004
     28 C          63.0443   90.0408   13.2449 C.ar    1  UNL1        0.0094
     29 C          63.6412   90.6736   12.0228 C.ar    1  UNL1       -0.0004
     30 C          62.7942   90.8997   10.8056 C.ar    1  UNL1        0.0204
     31 C          61.3504   90.4929   10.8105 C.ar    1  UNL1        0.0989
     32 N          60.7536   89.8601   12.0325 N.ar    1  UNL1       -0.2426
     33 C          61.6005   89.6341   13.2497 C.ar    1  UNL1        0.0954
@<TRIPOS>BOND
     1    26    27    3
     2    27    20    1
     3    20    21   ar
     4    21    22   ar
     5    22    23   ar
     6    23    19    1
     7    19     1    1
     8     1     2    2
     9     1     3   am
    10     3     4    1
    11     4     5    1
    12     5     6    1
    13     6     9    1
    14     9    10   ar
    15    10    11   ar
    16    11    12   ar
    17    12    15    1
    18    15    16    1
    19    15    17    1
    20    15    18    1
    21    12    13   ar
    22    13    14   ar
    23     6     7    1
    24     7     8    1
    25    19    28    1
    26    28    29   ar
    27    29    30   ar
    28    30    31   ar
    29    31    32   ar
    30    32    33   ar
    31    23    24   ar
    32    24    25   ar
    33    25    20   ar
    34     8     3    1
    35    33    28   ar
    36    14     9   ar
@<TRIPOS>MOLECULE
*****
 33 36 0 0 0
SMALL
GASTEIGER

@<TRIPOS>ATOM
      1 C          63.9012   88.8295   14.3594 C.2     1  UNL1        0.2335
      2 O          64.1600   89.0833   15.8150 O.2     1  UNL1       -0.2742
      3 N          63.7323   87.4247   13.8615 N.am    1  UNL1       -0.2755
      4 C          63.4735   87.1709   12.4060 C.3     1  UNL1        0.1148
      5 C          63.3046   85.7661   11.9081 C.3     1  UNL1        0.1123
      6 N          63.3946   84.6150   12.8656 N.pl3   1  UNL1       -0.3041
      7 C          63.6534   84.8688   14.3212 C.3     1  UNL1        0.1123
      8 C          63.8223   86.2736   14.8192 C.3     1  UNL1        0.1148
      9 C          63.2257   83.2102   12.3677 C.ar    1  UNL1        0.0479
     10 C          62.7021   82.1466   13.2867 C.ar    1  UNL1        0.0145
     11 C          62.5332   80.7418   12.7887 C.ar    1  UNL1        0.0051
     12 C          62.8880   80.4005   11.3718 C.ar    1  UNL1        0.0715
     13 C          63.4117   81.4642   10.4528 C.ar    1  UNL1        0.0051
     14 C          63.5805   82.8690   10.9507 C.ar    1  UNL1        0.0145
     15 C          62.7191   78.9957   10.8739 C.3     1  UNL1        0.4186
     16 F          62.5503   77.5909   10.3760 F       1  UNL1       -0.1659
     17 F          62.9457   79.4668    9.4679 F       1  UNL1       -0.1659
     18 F          62.4926   78.5246   12.2799 F       1  UNL1       -0.1659
     19 C          63.8112   89.9805   13.4019 C.3     1  UNL1        0.1226
     20 C          61.0180   89.7647    9.8803 C.ar    1  UNL1        0.0684
     21 C          60.4786   89.6384   11.2742 C.ar    1  UNL1        0.0100
     22 C          61.4097   89.7103   12.4481 C.ar    1  UNL1       -0.0028
     23 C          62.8801   89.9086   12.2280 C.ar    1  UNL1       -0.0097
     24 C          63.4195   90.0349   10.8341 C.ar    1  UNL1       -0.0028
     25 C          62.4884   89.9629    9.6602 C.ar    1  UNL1        0.0100
     26 N          59.1559   89.6207    7.5326 N.1     1  UNL1       -0.1908
     27 C          60.0870   89.6927    8.7064 C.1     1  UNL1        0.1004
     28 C          64.6523   91.2035   13.6182 C.ar    1  UNL1        0.0094
     29 C          65.1072   92.0183   12.4437 C.ar    1  UNL1       -0.0004
     30 C          65.9482   93.2413   12.6600 C.ar    1  UNL1        0.0204
     31 C          66.3345   93.6496   14.0507 C.ar    1  UNL1        0.0989
     32 N          65.8796   92.8349   15.2252 N.ar    1  UNL1       -0.2426
     33 C          65.0385   91.6118   15.0089 C.ar    1  UNL1        0.0954
@<TRIPOS>BOND
     1    26    27    3
     2    27    20    1
     3    20    21   ar
     4    21    22   ar
     5    22    23   ar
     6    23    19    1
     7    19     1    1
     8     1     2    2
     9     1     3   am
    10     3     4    1
    11     4     5    1
    12     5     6    1
    13     6     9    1
    14     9    10   ar
    15    10    11   ar
    16    11    12   ar
    17    12    15    1
    18    15    16    1
    19    15    17    1
    20    15    18    1
    21    12    13   ar
    22    13    14   ar
    23     6     7    1
    24     7     8    1
    25    19    28    1
    26    28    29   ar
    27    29    30   ar
    28    30    31   ar
    29    31    32   ar
    30    32    33   ar
    31    23    24   ar
    32    24    25   ar
    33    25    20   ar
    34     8     3    1
    35    33    28   ar
    36    14     9   ar
@<TRIPOS>MOLECULE
*****
 33 36 0 0 0
SMALL
GASTEIGER

@<TRIPOS>ATOM
      1 C          62.3399   89.8232   12.0280 C.2     1  UNL1        0.2335
      2 O          61.2292   90.5752   11.3565 O.2     1  UNL1       -0.2742
      3 N          62.4170   88.3303   11.9039 N.am    1  UNL1       -0.2755
      4 C          63.5276   87.5782   12.5753 C.3     1  UNL1        0.1148
      5 C          63.6046   86.0854   12.4512 C.3     1  UNL1        0.1123
      6 N          62.5711   85.3446   11.6556 N.pl3   1  UNL1       -0.3041
      7 C          61.4604   86.0966   10.9842 C.3     1  UNL1        0.1123
      8 C          61.3833   87.5895   11.1083 C.3     1  UNL1        0.1148
      9 C          62.6481   83.8517   11.5315 C.ar    1  UNL1        0.0479
     10 C          63.1868   83.2302   10.2772 C.ar    1  UNL1        0.0145
     11 C          63.2639   81.7373   10.1531 C.ar    1  UNL1        0.0051
     12 C          62.8022   80.8659   11.2833 C.ar    1  UNL1        0.0715
     13 C          62.2635   81.4874   12.5378 C.ar    1  UNL1        0.0051
     14 C          62.1864   82.9803   12.6619 C.ar    1  UNL1        0.0145
     15 C          62.8793   79.3731   11.1592 C.3     1  UNL1        0.4186
     16 F          62.9564   77.8802   11.0351 F       1  UNL1       -0.1659
     17 F          63.1126   79.5078    9.6836 F       1  UNL1       -0.1659
     18 F          62.6460   79.2384   12.6348 F       1  UNL1       -0.1659
     19 C          63.3735   90.5640   12.8235 C.3     1  UNL1        0.1226
     20 C          66.3675   93.1910   10.7296 C.ar    1  UNL1        0.0684
     21 C          66.6701   92.6501   12.0955 C.ar    1  UNL1        0.0100
     22 C          65.6721   91.7744   12.7935 C.ar    1  UNL1       -0.0028
     23 C          64.3715   91.4396   12.1255 C.ar    1  UNL1       -0.0097
     24 C          64.0689   91.9806   10.7596 C.ar    1  UNL1       -0.0028
     25 C          65.0669   92.8563   10.0616 C.ar    1  UNL1        0.0100
     26 N          68.3635   94.9424    9.3337 N.1     1  UNL1       -0.1908
     27 C          67.3655   94.0667   10.0316 C.1     1  UNL1        0.1004
     28 C          63.4090   90.4291   14.3169 C.ar    1  UNL1        0.0094
     29 C          63.0942   89.1103   14.9586 C.ar    1  UNL1       -0.0004
     30 C          63.1298   88.9754   16.4521 C.ar    1  UNL1        0.0204
     31 C          63.4802   90.1593   17.3040 C.ar    1  UNL1        0.0989
     32 N          63.7949   91.4780   16.6623 N.ar    1  UNL1       -0.2426
     33 C          63.7594   91.6130   15.1688 C.ar    1  UNL1        0.0954
@<TRIPOS>BOND
     1    26    27    3
     2    27    20    1
     3    20    21   ar
     4    21    22   ar
     5    22    23   ar
     6    23    19    1
     7    19     1    1
     8     1     2    2
     9     1     3   am
    10     3     4    1
    11     4     5    1
    12     5     6    1
    13     6     9    1
    14     9    10   ar
    15    10    11   ar
    16    11    12   ar
    17    12    15    1
    18    15    16    1
    19    15    17    1
    20    15    18    1
    21    12    13   ar
    22    13    14   ar
    23     6     7    1
    24     7     8    1
    25    19    28    1
    26    28    29   ar
    27    29    30   ar
    28    30    31   ar
    29    31    32   ar
    30    32    33   ar
    31    23    24   ar
    32    24    25   ar
    33    25    20   ar
    34     8     3    1
    35    33    28   ar
    36    14     9   ar
@<TRIPOS>MOLECULE
*****
 33 36 0 0 0
SMALL
GASTEIGER

@<TRIPOS>ATOM
      1 C          62.3160   89.8302   12.0563 C.2     1  UNL1        0.2335
      2 O          61.1993   90.5856   11.3988 O.2     1  UNL1       -0.2742
      3 N          62.3943   88.3384   11.9202 N.am    1  UNL1       -0.2755
      4 C          63.5110   87.5829   12.5776 C.3     1  UNL1        0.1148
      5 C          63.5893   86.0912   12.4415 C.3     1  UNL1        0.1123
      6 N          62.5509   85.3549   11.6481 N.pl3   1  UNL1       -0.3041
      7 C          61.4342   86.1104   10.9907 C.3     1  UNL1        0.1123
      8 C          61.3559   87.6021   11.1267 C.3     1  UNL1        0.1148
      9 C          62.6292   83.8631   11.5121 C.ar    1  UNL1        0.0479
     10 C          62.2071   82.9829   12.6509 C.ar    1  UNL1        0.0145
     11 C          62.2854   81.4912   12.5149 C.ar    1  UNL1        0.0051
     12 C          62.7858   80.8796   11.2400 C.ar    1  UNL1        0.0715
     13 C          63.2080   81.7598   10.1010 C.ar    1  UNL1        0.0051
     14 C          63.1297   83.2515   10.2370 C.ar    1  UNL1        0.0145
     15 C          62.8641   79.3878   11.1039 C.3     1  UNL1        0.4186
     16 F          62.9424   77.8961   10.9678 F       1  UNL1       -0.1659
     17 F          62.5814   79.2393   12.5695 F       1  UNL1       -0.1659
     18 F          63.1469   79.5363    9.6383 F       1  UNL1       -0.1659
     19 C          63.3544   90.5664   12.8497 C.3     1  UNL1        0.1226
     20 C          66.3539   93.1826   10.7500 C.ar    1  UNL1        0.0684
     21 C          65.0897   92.7803   10.0502 C.ar    1  UNL1        0.0100
     22 C          64.0899   91.9083   10.7500 C.ar    1  UNL1       -0.0028
     23 C          64.3543   91.4385   12.1498 C.ar    1  UNL1       -0.0097
     24 C          65.6185   91.8408   12.8497 C.ar    1  UNL1       -0.0028
     25 C          66.6183   92.7129   12.1498 C.ar    1  UNL1        0.0100
     26 N          68.3536   94.9268    9.3502 N.1     1  UNL1       -0.1908
     27 C          67.3538   94.0547   10.0501 C.1     1  UNL1        0.1004
     28 C          63.3930   90.4307   14.3430 C.ar    1  UNL1        0.0094
     29 C          63.0942   89.1077   14.9838 C.ar    1  UNL1       -0.0004
     30 C          63.1328   88.9719   16.4771 C.ar    1  UNL1        0.0204
     31 C          63.4701   90.1590   17.3297 C.ar    1  UNL1        0.0989
     32 N          63.7689   91.4820   16.6890 N.ar    1  UNL1       -0.2426
     33 C          63.7304   91.6178   15.1956 C.ar    1  UNL1        0.0954
@<TRIPOS>BOND
     1    26    27    3
     2    27    20    1
     3    20    21   ar
     4    21    22   ar
     5    22    23   ar
     6    23    19    1
     7    19     1    1
     8     1     2    2
     9     1     3   am
    10     3     4    1
    11     4     5    1
    12     5     6    1
    13     6     9    1
    14     9    10   ar
    15    10    11   ar
    16    11    12   ar
    17    12    15    1
    18    15    16    1
    19    15    17    1
    20    15    18    1
    21    12    13   ar
    22    13    14   ar
    23     6     7    1
    24     7     8    1
    25    19    28    1
    26    28    29   ar
    27    29    30   ar
    28    30    31   ar
    29    31    32   ar
    30    32    33   ar
    31    23    24   ar
    32    24    25   ar
    33    25    20   ar
    34     8     3    1
    35    33    28   ar
    36    14     9   ar
@<TRIPOS>MOLECULE
*****
 33 36 0 0 0
SMALL
GASTEIGER

@<TRIPOS>ATOM
      1 C          60.5524   88.5863   11.5924 C.2     1  UNL1        0.2335
      2 O          59.2027   88.6682   12.2419 O.2     1  UNL1       -0.2742
      3 N          61.7279   89.2791   12.2155 N.am    1  UNL1       -0.2755
      4 C          63.0775   89.1971   11.5660 C.3     1  UNL1        0.1148
      5 C          64.2530   89.8899   12.1891 C.3     1  UNL1        0.1123
      6 N          64.0789   90.6646   13.4617 N.pl3   1  UNL1       -0.3041
      7 C          62.7292   90.7466   14.1112 C.3     1  UNL1        0.1123
      8 C          61.5537   90.0538   13.4881 C.3     1  UNL1        0.1148
      9 C          65.2544   91.3574   14.0848 C.ar    1  UNL1        0.0479
     10 C          66.4995   91.5910   13.2816 C.ar    1  UNL1        0.0145
     11 C          67.6750   92.2838   13.9047 C.ar    1  UNL1        0.0051
     12 C          67.6054   92.7430   15.3309 C.ar    1  UNL1        0.0715
     13 C          66.3602   92.5094   16.1342 C.ar    1  UNL1        0.0051
     14 C          65.1847   91.8166   15.5111 C.ar    1  UNL1        0.0145
     15 C          68.7809   93.4357   15.9540 C.3     1  UNL1        0.4186
     16 F          69.9564   94.1285   16.5771 F       1  UNL1       -0.1659
     17 F          68.2538   94.7573   15.4791 F       1  UNL1       -0.1659
     18 F          69.3080   92.1142   16.4290 F       1  UNL1       -0.1659
     19 C          60.7265   87.8116   10.3198 C.3     1  UNL1        0.1226
     20 C          63.1721   84.0342   10.3018 C.ar    1  UNL1        0.0684
     21 C          63.0576   84.8595    9.0545 C.ar    1  UNL1        0.0100
     22 C          62.2424   86.1187    9.0605 C.ar    1  UNL1       -0.0028
     23 C          61.5417   86.5525   10.3138 C.ar    1  UNL1       -0.0097
     24 C          61.6561   85.7271   11.5610 C.ar    1  UNL1       -0.0028
     25 C          62.4714   84.4680   11.5550 C.ar    1  UNL1        0.0100
     26 N          64.8025   81.5160   10.2897 N.1     1  UNL1       -0.1908
     27 C          63.9873   82.7751   10.2957 C.1     1  UNL1        0.1004
     28 C          60.0853   88.2960    9.0532 C.ar    1  UNL1        0.0094
     29 C          60.4327   89.6490    8.5066 C.ar    1  UNL1       -0.0004
     30 C          59.7916   90.1334    7.2400 C.ar    1  UNL1        0.0204
     31 C          58.8030   89.2649    6.5200 C.ar    1  UNL1        0.0989
     32 N          58.4556   87.9120    7.0666 N.ar    1  UNL1       -0.2426
     33 C          59.0967   87.4275    8.3332 C.ar    1  UNL1        0.0954
@<TRIPOS>BOND
     1    26    27    3
     2    27    20    1
     3    20    21   ar
     4    21    22   ar
     5    22    23   ar
     6    23    19    1
     7    19     1    1
     8     1     2    2
     9     1     3   am
    10     3     4    1
    11     4     5    1
    12     5     6    1
    13     6     9    1
    14     9    10   ar
    15    10    11   ar
    16    11    12   ar
    17    12    15    1
    18    15    16    1
    19    15    17    1
    20    15    18    1
    21    12    13   ar
    22    13    14   ar
    23     6     7    1
    24     7     8    1
    25    19    28    1
    26    28    29   ar
    27    29    30   ar
    28    30    31   ar
    29    31    32   ar
    30    32    33   ar
    31    23    24   ar
    32    24    25   ar
    33    25    20   ar
    34     8     3    1
    35    33    28   ar
    36    14     9   ar
@<TRIPOS>MOLECULE
*****
 33 36 0 0 0
SMALL
GASTEIGER

@<TRIPOS>ATOM
      1 C          60.8322   88.3512   11.6377 C.2     1  UNL1        0.2335
      2 O          59.5409   88.1823   12.3820 O.2     1  UNL1       -0.2742
      3 N          61.9690   89.0996   12.2682 N.am    1  UNL1       -0.2755
      4 C          63.2603   89.2685   11.5240 C.3     1  UNL1        0.1148
      5 C          64.3970   90.0170   12.1546 C.3     1  UNL1        0.1123
      6 N          64.2425   90.5966   13.5294 N.pl3   1  UNL1       -0.3041
      7 C          62.9511   90.4277   14.2737 C.3     1  UNL1        0.1123
      8 C          61.8143   89.6792   13.6431 C.3     1  UNL1        0.1148
      9 C          65.3792   91.3450   14.1600 C.ar    1  UNL1        0.0479
     10 C          65.2604   91.8396   15.5711 C.ar    1  UNL1        0.0145
     11 C          66.3972   92.5881   16.2017 C.ar    1  UNL1        0.0051
     12 C          67.6527   92.8419   15.4212 C.ar    1  UNL1        0.0715
     13 C          67.7715   92.3473   14.0100 C.ar    1  UNL1        0.0051
     14 C          66.6347   91.5989   13.3794 C.ar    1  UNL1        0.0145
     15 C          68.7894   93.5904   16.0517 C.3     1  UNL1        0.4186
     16 F          69.9261   94.3389   16.6823 F       1  UNL1       -0.1659
     17 F          68.2485   94.8763   15.5006 F       1  UNL1       -0.1659
     18 F          69.3304   92.3045   16.6029 F       1  UNL1       -0.1659
     19 C          60.9868   87.7716   10.2629 C.3     1  UNL1        0.1226
     20 C          59.0735   89.8069    6.7348 C.ar    1  UNL1        0.0684
     21 C          60.0357   90.5605    7.6044 C.ar    1  UNL1        0.0100
     22 C          60.6735   89.8820    8.7804 C.ar    1  UNL1       -0.0028
     23 C          60.3490   88.4500    9.0868 C.ar    1  UNL1       -0.0097
     24 C          59.3868   87.6964    8.2173 C.ar    1  UNL1       -0.0028
     25 C          58.7490   88.3748    7.0413 C.ar    1  UNL1        0.0100
     26 N          57.7980   91.1637    4.3828 N.1     1  UNL1       -0.1908
     27 C          58.4357   90.4853    5.5588 C.1     1  UNL1        0.1004
     28 C          61.7792   86.5136   10.0641 C.ar    1  UNL1        0.0094
     29 C          62.3855   86.2128    8.7254 C.ar    1  UNL1       -0.0004
     30 C          63.1779   84.9548    8.5266 C.ar    1  UNL1        0.0204
     31 C          63.3639   83.9975    9.6664 C.ar    1  UNL1        0.0989
     32 N          62.7576   84.2983   11.0050 N.ar    1  UNL1       -0.2426
     33 C          61.9652   85.5564   11.2038 C.ar    1  UNL1        0.0954
@<TRIPOS>BOND
     1    26    27    3
     2    27    20    1
     3    20    21   ar
     4    21    22   ar
     5    22    23   ar
     6    23    19    1
     7    19     1    1
     8     1     2    2
     9     1     3   am
    10     3     4    1
    11     4     5    1
    12     5     6    1
    13     6     9    1
    14     9    10   ar
    15    10    11   ar
    16    11    12   ar
    17    12    15    1
    18    15    16    1
    19    15    17    1
    20    15    18    1
    21    12    13   ar
    22    13    14   ar
    23     6     7    1
    24     7     8    1
    25    19    28    1
    26    28    29   ar
    27    29    30   ar
    28    30    31   ar
    29    31    32   ar
    30    32    33   ar
    31    23    24   ar
    32    24    25   ar
    33    25    20   ar
    34     8     3    1
    35    33    28   ar
    36    14     9   ar
@<TRIPOS>MOLECULE
*****
 33 36 0 0 0
SMALL
GASTEIGER

@<TRIPOS>ATOM
      1 C          60.2938   95.4031   -1.2141 C.2     1  UNL1        0.2335
      2 O          60.6460   96.8549   -1.0787 O.2     1  UNL1       -0.2742
      3 N          60.1624   94.5459    0.0098 N.am    1  UNL1       -0.2755
      4 C          59.8103   93.0942   -0.1255 C.3     1  UNL1        0.1148
      5 C          59.6788   92.2370    1.0984 C.3     1  UNL1        0.1123
      6 N          59.8996   92.8316    2.4577 N.pl3   1  UNL1       -0.3041
      7 C          60.2518   94.2835    2.5931 C.3     1  UNL1        0.1123
      8 C          60.3832   95.1406    1.3691 C.3     1  UNL1        0.1148
      9 C          59.7682   91.9745    3.6816 C.ar    1  UNL1        0.0479
     10 C          60.9744   91.2859    4.2481 C.ar    1  UNL1        0.0145
     11 C          60.8430   90.4288    5.4720 C.ar    1  UNL1        0.0051
     12 C          59.5054   90.2602    6.1295 C.ar    1  UNL1        0.0715
     13 C          58.2991   90.9488    5.5631 C.ar    1  UNL1        0.0051
     14 C          58.4305   91.8059    4.3391 C.ar    1  UNL1        0.0145
     15 C          59.3740   89.4030    7.3535 C.3     1  UNL1        0.4186
     16 F          59.2426   88.5459    8.5774 F       1  UNL1       -0.1659
     17 F          58.1648   88.7422    6.7609 F       1  UNL1       -0.1659
     18 F          60.5832   90.0638    7.9461 F       1  UNL1       -0.1659
     19 C          60.0731   94.8085   -2.5734 C.3     1  UNL1        0.1226
     20 C          63.5653   93.2348   -4.9351 C.ar    1  UNL1        0.0684
     21 C          63.4085   92.8633   -3.4904 C.ar    1  UNL1        0.0100
     22 C          62.2445   93.3879   -2.7031 C.ar    1  UNL1       -0.0028
     23 C          61.2371   94.2839   -3.3606 C.ar    1  UNL1       -0.0097
     24 C          61.3939   94.6554   -4.8054 C.ar    1  UNL1       -0.0028
     25 C          62.5580   94.1309   -5.5926 C.ar    1  UNL1        0.0100
     26 N          65.8935   92.1858   -6.5096 N.1     1  UNL1       -0.1908
     27 C          64.7294   92.7103   -5.7224 C.1     1  UNL1        0.1004
     28 C          58.6882   94.7384   -3.1454 C.ar    1  UNL1        0.0094
     29 C          58.1061   93.4136   -3.5407 C.ar    1  UNL1       -0.0004
     30 C          56.7213   93.3435   -4.1127 C.ar    1  UNL1        0.0204
     31 C          55.9185   94.5982   -4.2895 C.ar    1  UNL1        0.0989
     32 N          56.5005   95.9230   -3.8943 N.ar    1  UNL1       -0.2426
     33 C          57.8854   95.9931   -3.3223 C.ar    1  UNL1        0.0954
@<TRIPOS>BOND
     1    26    27    3
     2    27    20    1
     3    20    21   ar
     4    21    22   ar
     5    22    23   ar
     6    23    19    1
     7    19     1    1
     8     1     2    2
     9     1     3   am
    10     3     4    1
    11     4     5    1
    12     5     6    1
    13     6     9    1
    14     9    10   ar
    15    10    11   ar
    16    11    12   ar
    17    12    15    1
    18    15    16    1
    19    15    17    1
    20    15    18    1
    21    12    13   ar
    22    13    14   ar
    23     6     7    1
    24     7     8    1
    25    19    28    1
    26    28    29   ar
    27    29    30   ar
    28    30    31   ar
    29    31    32   ar
    30    32    33   ar
    31    23    24   ar
    32    24    25   ar
    33    25    20   ar
    34     8     3    1
    35    33    28   ar
    36    14     9   ar
