@<TRIPOS>MOLECULE
*****
 36 39 0 0 0
SMALL
GASTEIGER

@<TRIPOS>ATOM
      1 C          63.3992   84.7246   13.3360 C.3     1  UNL1        0.3254
      2 F          64.6528   85.5294   13.1602 F       1  UNL1       -0.1949
      3 F          62.0218   84.1376   13.2452 F       1  UNL1       -0.1949
      4 C          62.7339   85.5250   12.2558 C.ar    1  UNL1        0.1218
      5 C          62.0035   84.8271   11.1470 C.ar    1  UNL1        0.0202
      6 C          61.3383   85.6275   10.0667 C.ar    1  UNL1        0.0029
      7 C          61.4034   87.1258   10.0953 C.ar    1  UNL1        0.0192
      8 C          62.1338   87.8238   11.2042 C.ar    1  UNL1        0.0986
      9 N          62.7990   87.0234   12.2844 N.ar    1  UNL1       -0.2427
     10 C          60.7382   87.9262    9.0152 C.ar    1  UNL1        0.0015
     11 C          60.7822   89.4250    9.0572 C.ar    1  UNL1       -0.0000
     12 C          60.1170   90.2255    7.9770 C.ar    1  UNL1        0.0039
     13 C          59.4078   89.5271    6.8548 C.ar    1  UNL1        0.0714
     14 C          59.3638   88.0283    6.8128 C.ar    1  UNL1        0.0039
     15 C          60.0290   87.2279    7.8930 C.ar    1  UNL1       -0.0000
     16 C          58.7426   90.3275    5.7746 C.3     1  UNL1        0.4186
     17 F          58.0773   91.1279    4.6945 F       1  UNL1       -0.1659
     18 F          57.3982   89.9165    6.2981 F       1  UNL1       -0.1659
     19 F          60.0868   90.7384    5.2513 F       1  UNL1       -0.1659
     20 O          64.7297   83.1240   15.4964 O.3     1  UNL1       -0.3755
     21 C          64.0644   83.9243   14.4162 C.3     1  UNL1        0.1932
     22 H          65.0705   82.2964   15.1223 H       1  UNL1        0.2110
     23 C          63.6336   82.6557   13.7417 C.ar    1  UNL1        0.0368
     24 C          62.6487   81.7458   14.4141 C.ar    1  UNL1        0.0028
     25 C          62.2178   80.4773   13.7396 C.ar    1  UNL1        0.0295
     26 C          62.7718   80.1185   12.3926 C.ar    1  UNL1        0.1424
     27 F          62.3409   78.8500   11.7180 F       1  UNL1       -0.2041
     28 C          63.7566   81.0284   11.7201 C.ar    1  UNL1        0.0590
     29 C          64.1875   82.2970   12.3947 C.ar    1  UNL1        0.1408
     30 F          65.1724   83.2068   11.7222 F       1  UNL1       -0.2043
     31 C          64.4953   85.1929   15.0908 C.3     1  UNL1        0.1679
     32 N          63.5235   85.9592   15.9383 N.ar    1  UNL1       -0.2078
     33 C          62.4060   85.3719   16.7484 C.ar    1  UNL1        0.2216
     34 N          61.6903   86.4971   17.4352 N.ar    1  UNL1       -0.1048
     35 N          62.3655   87.7798   17.0495 N.ar    1  UNL1       -0.0226
     36 N          63.4984   87.4474   16.1244 N.ar    1  UNL1       -0.0428
@<TRIPOS>BOND
     1    20    21    1
     2    21    31    1
     3    31    32    1
     4    32    33   ar
     5    33    34   ar
     6    34    35   ar
     7    35    36   ar
     8    21    23    1
     9    23    24   ar
    10    24    25   ar
    11    25    26   ar
    12    26    27    1
    13    26    28   ar
    14    28    29   ar
    15    29    30    1
    16    21     1    1
    17     1     2    1
    18     1     3    1
    19     1     4    1
    20     4     5   ar
    21     5     6   ar
    22     6     7   ar
    23     7    10    1
    24    10    11   ar
    25    11    12   ar
    26    12    13   ar
    27    13    16    1
    28    16    17    1
    29    16    18    1
    30    16    19    1
    31    13    14   ar
    32    14    15   ar
    33     7     8   ar
    34     8     9   ar
    35    36    32   ar
    36    29    23   ar
    37     9     4   ar
    38    15    10   ar
    39    20    22    1
@<TRIPOS>MOLECULE
*****
 36 39 0 0 0
SMALL
GASTEIGER

@<TRIPOS>ATOM
      1 C          63.3662   84.7501   13.2303 C.3     1  UNL1        0.3254
      2 F          62.0242   84.4209   13.8139 F       1  UNL1       -0.1949
      3 F          64.5073   85.2645   12.4037 F       1  UNL1       -0.1949
      4 C          62.7006   85.5558   12.1542 C.ar    1  UNL1        0.1218
      5 C          62.7439   87.0544   12.2040 C.ar    1  UNL1        0.0202
      6 C          62.0783   87.8601   11.1279 C.ar    1  UNL1        0.0029
      7 C          61.3694   87.1671   10.0021 C.ar    1  UNL1        0.0192
      8 C          61.3262   85.6685    9.9524 C.ar    1  UNL1        0.0986
      9 N          61.9917   84.8629   11.0285 N.ar    1  UNL1       -0.2427
     10 C          60.7039   87.9728    8.9260 C.ar    1  UNL1        0.0015
     11 C          59.9281   87.2824    7.8436 C.ar    1  UNL1       -0.0000
     12 C          59.2625   88.0880    6.7675 C.ar    1  UNL1        0.0039
     13 C          59.3727   89.5840    6.7738 C.ar    1  UNL1        0.0714
     14 C          60.1484   90.2743    7.8563 C.ar    1  UNL1        0.0039
     15 C          60.8140   89.4687    8.9324 C.ar    1  UNL1       -0.0000
     16 C          58.7071   90.3896    5.6978 C.3     1  UNL1        0.4186
     17 F          58.0415   91.1952    4.6217 F       1  UNL1       -0.1659
     18 F          57.3629   89.9814    6.2237 F       1  UNL1       -0.1659
     19 F          60.0513   90.7978    5.1719 F       1  UNL1       -0.1659
     20 O          64.6973   83.1388   15.3824 O.3     1  UNL1       -0.3755
     21 C          64.0317   83.9445   14.3064 C.3     1  UNL1        0.1932
     22 H          65.0548   82.3220   15.0005 H       1  UNL1        0.2110
     23 C          63.6279   82.6794   13.6090 C.ar    1  UNL1        0.0368
     24 C          64.3102   82.2740   12.3361 C.ar    1  UNL1        0.0028
     25 C          63.9064   81.0090   11.6386 C.ar    1  UNL1        0.0295
     26 C          62.8202   80.1492   12.2141 C.ar    1  UNL1        0.1424
     27 F          62.4164   78.8841   11.5166 F       1  UNL1       -0.2041
     28 C          62.1379   80.5545   13.4869 C.ar    1  UNL1        0.0590
     29 C          62.5418   81.8196   14.1844 C.ar    1  UNL1        0.1408
     30 F          61.8595   82.2249   15.4572 F       1  UNL1       -0.2043
     31 C          64.4356   85.2096   15.0039 C.3     1  UNL1        0.1679
     32 N          63.4659   85.9091   15.9096 N.ar    1  UNL1       -0.2078
     33 C          63.4680   87.3717   16.2424 C.ar    1  UNL1        0.2216
     34 N          62.3273   87.6354   17.1800 N.ar    1  UNL1       -0.1048
     35 N          61.6201   86.3357   17.4267 N.ar    1  UNL1       -0.0226
     36 N          62.3239   85.2688   16.6415 N.ar    1  UNL1       -0.0428
@<TRIPOS>BOND
     1    20    21    1
     2    21    31    1
     3    31    32    1
     4    32    33   ar
     5    33    34   ar
     6    34    35   ar
     7    35    36   ar
     8    21    23    1
     9    23    24   ar
    10    24    25   ar
    11    25    26   ar
    12    26    27    1
    13    26    28   ar
    14    28    29   ar
    15    29    30    1
    16    21     1    1
    17     1     2    1
    18     1     3    1
    19     1     4    1
    20     4     5   ar
    21     5     6   ar
    22     6     7   ar
    23     7    10    1
    24    10    11   ar
    25    11    12   ar
    26    12    13   ar
    27    13    16    1
    28    16    17    1
    29    16    18    1
    30    16    19    1
    31    13    14   ar
    32    14    15   ar
    33     7     8   ar
    34     8     9   ar
    35    36    32   ar
    36    29    23   ar
    37     9     4   ar
    38    15    10   ar
    39    20    22    1
@<TRIPOS>MOLECULE
*****
 36 39 0 0 0
SMALL
GASTEIGER

@<TRIPOS>ATOM
      1 C          61.7281   87.7770   10.6976 C.3     1  UNL1        0.3254
      2 F          60.8241   87.7153   11.8930 F       1  UNL1       -0.1949
      3 F          62.8355   88.0478    9.7228 F       1  UNL1       -0.1949
      4 C          62.6798   88.6486   11.4623 C.ar    1  UNL1        0.1218
      5 C          63.0173   90.0183   10.9525 C.ar    1  UNL1        0.0202
      6 C          63.9690   90.8898   11.7172 C.ar    1  UNL1        0.0029
      7 C          64.5832   90.3915   12.9918 C.ar    1  UNL1        0.0192
      8 C          64.2457   89.0217   13.5016 C.ar    1  UNL1        0.0986
      9 N          63.2941   88.1503   12.7368 N.ar    1  UNL1       -0.2427
     10 C          65.5349   91.2630   13.7565 C.ar    1  UNL1        0.0015
     11 C          65.2597   91.5933   15.1935 C.ar    1  UNL1       -0.0000
     12 C          66.2115   92.4648   15.9583 C.ar    1  UNL1        0.0039
     13 C          67.4383   93.0059   15.2860 C.ar    1  UNL1        0.0714
     14 C          67.7135   92.6755   13.8489 C.ar    1  UNL1        0.0039
     15 C          66.7618   91.8041   13.0842 C.ar    1  UNL1       -0.0000
     16 C          68.3900   93.8773   16.0507 C.3     1  UNL1        0.4186
     17 F          69.3417   94.7488   16.8155 F       1  UNL1       -0.1659
     18 F          68.8831   92.6776   16.8041 F       1  UNL1       -0.1659
     19 F          67.8968   95.0770   15.2974 F       1  UNL1       -0.1659
     20 O          59.8247   86.0341    9.1683 O.3     1  UNL1       -0.3755
     21 C          60.7764   86.9056    9.9329 C.3     1  UNL1        0.1932
     22 H          59.8968   85.1203    9.4857 H       1  UNL1        0.2110
     23 C          61.7344   85.7572   10.0494 C.ar    1  UNL1        0.0368
     24 C          61.9478   85.0901   11.3759 C.ar    1  UNL1        0.0028
     25 C          62.9058   83.9418   11.4923 C.ar    1  UNL1        0.0295
     26 C          63.6503   83.4605   10.2824 C.ar    1  UNL1        0.1424
     27 F          64.6083   82.3122   10.3989 F       1  UNL1       -0.2041
     28 C          63.4369   84.1275    8.9560 C.ar    1  UNL1        0.0590
     29 C          62.4789   85.2759    8.8394 C.ar    1  UNL1        0.1408
     30 F          62.2655   85.9430    7.5130 F       1  UNL1       -0.2043
     31 C          59.8184   88.0539    9.8164 C.3     1  UNL1        0.1679
     32 N          59.5854   88.7042    8.4850 N.ar    1  UNL1       -0.2078
     33 C          60.2088   89.9819    8.0066 C.ar    1  UNL1        0.2216
     34 N          59.6969   90.2583    6.6241 N.ar    1  UNL1       -0.1048
     35 N          58.7570   89.1514    6.2479 N.ar    1  UNL1       -0.0226
     36 N          58.6882   88.1909    7.3980 N.ar    1  UNL1       -0.0428
@<TRIPOS>BOND
     1    20    21    1
     2    21    31    1
     3    31    32    1
     4    32    33   ar
     5    33    34   ar
     6    34    35   ar
     7    35    36   ar
     8    21    23    1
     9    23    24   ar
    10    24    25   ar
    11    25    26   ar
    12    26    27    1
    13    26    28   ar
    14    28    29   ar
    15    29    30    1
    16    21     1    1
    17     1     2    1
    18     1     3    1
    19     1     4    1
    20     4     5   ar
    21     5     6   ar
    22     6     7   ar
    23     7    10    1
    24    10    11   ar
    25    11    12   ar
    26    12    13   ar
    27    13    16    1
    28    16    17    1
    29    16    18    1
    30    16    19    1
    31    13    14   ar
    32    14    15   ar
    33     7     8   ar
    34     8     9   ar
    35    36    32   ar
    36    29    23   ar
    37     9     4   ar
    38    15    10   ar
    39    20    22    1
