@<TRIPOS>MOLECULE
*****
 42 46 0 0 0
SMALL
GASTEIGER

@<TRIPOS>ATOM
      1 N          60.8548   88.2280   10.0612 N.am    1  UNL1       -0.2533
      2 C          60.8043   89.1751    8.8993 C.2     1  UNL1        0.3092
      3 O          61.7350   90.3504    8.8487 O.2     1  UNL1       -0.2521
      4 N          59.8231   88.9471    7.7878 N.am    1  UNL1       -0.2680
      5 H          60.2440   87.4566   10.0944 H       1  UNL1        0.1578
      6 H          59.2123   88.1758    7.8210 H       1  UNL1        0.1564
      7 C          59.7727   89.8944    6.6259 C.ar    1  UNL1        0.0516
      8 C          58.4613   90.4779    6.1903 C.ar    1  UNL1        0.0147
      9 C          58.4108   91.4251    5.0284 C.ar    1  UNL1        0.0013
     10 C          59.6717   91.7889    4.3019 C.ar    1  UNL1        0.0016
     11 C          60.9831   91.2054    4.7375 C.ar    1  UNL1        0.0013
     12 C          61.0336   90.2581    5.8994 C.ar    1  UNL1        0.0147
     13 C          59.6212   92.7361    3.1399 C.ar    1  UNL1        0.0194
     14 C          59.1269   92.2609    1.8058 C.ar    1  UNL1        0.0063
     15 C          59.0765   93.2082    0.6439 C.ar    1  UNL1        0.0577
     16 C          59.5203   94.6306    0.8160 C.ar    1  UNL1        0.2252
     17 N          60.0146   95.1058    2.1502 N.ar    1  UNL1       -0.2101
     18 C          60.0650   94.1586    3.3121 C.ar    1  UNL1        0.1020
     19 O          59.4698   95.5779   -0.3459 O.3     1  UNL1       -0.4552
     20 C          58.2173   95.6969   -1.1627 C.3     1  UNL1        0.2337
     21 C          57.6781   94.4997   -1.8878 C.ar    1  UNL1        0.0212
     22 C          56.2859   94.0169   -1.6068 C.ar    1  UNL1       -0.0007
     23 C          55.7467   92.8197   -2.3319 C.ar    1  UNL1       -0.0002
     24 C          56.5996   92.1051   -3.3379 C.ar    1  UNL1       -0.0000
     25 C          57.9917   92.5879   -3.6188 C.ar    1  UNL1       -0.0002
     26 C          58.5309   93.7851   -2.8938 C.ar    1  UNL1       -0.0007
     27 N          62.7191   87.4161   11.7963 N.ar    1  UNL1       -0.2162
     28 N          63.5352   88.0814   12.8647 N.ar    1  UNL1       -0.1683
     29 C          63.1565   89.5323   12.9014 C.ar    1  UNL1        0.0810
     30 C          62.1063   89.7638   11.8557 C.ar    1  UNL1        0.0509
     31 C          61.8360   88.4559   11.1727 C.ar    1  UNL1        0.1380
     32 C          62.9472   81.6146   10.2829 C.3     1  UNL1        0.0310
     33 C          62.8902   83.0650   10.6612 C.ar    1  UNL1       -0.0218
     34 C          62.9299   84.1201    9.5959 C.ar    1  UNL1       -0.0027
     35 C          62.8729   85.5705    9.9742 C.ar    1  UNL1        0.0189
     36 C          62.7761   85.9658   11.4179 C.ar    1  UNL1        0.0842
     37 C          62.7364   84.9106   12.4833 C.ar    1  UNL1        0.0189
     38 C          62.7934   83.4602   12.1050 C.ar    1  UNL1       -0.0027
     39 C          63.7276   90.5696   13.8221 C.3     1  UNL1        0.0372
     40 C          63.3433   89.7312   15.0051 C.3     1  UNL1        0.0060
     41 C          64.1120   91.4080   12.6392 C.3     1  UNL1        0.0060
     42 C          64.2988   91.6069   14.7429 C.3     1  UNL1        0.0060
@<TRIPOS>BOND
     1    32    33    1
     2    33    34   ar
     3    34    35   ar
     4    35    36   ar
     5    36    27    1
     6    27    28   ar
     7    28    29   ar
     8    29    39    1
     9    39    40    1
    10    39    41    1
    11    39    42    1
    12    29    30   ar
    13    30    31   ar
    14    31     1    1
    15     1     2   am
    16     2     3    2
    17     2     4   am
    18     4     7    1
    19     7     8   ar
    20     8     9   ar
    21     9    10   ar
    22    10    13    1
    23    13    14   ar
    24    14    15   ar
    25    15    16   ar
    26    16    19    1
    27    19    20    1
    28    20    21    1
    29    21    22   ar
    30    22    23   ar
    31    23    24   ar
    32    24    25   ar
    33    25    26   ar
    34    16    17   ar
    35    17    18   ar
    36    10    11   ar
    37    11    12   ar
    38    36    37   ar
    39    37    38   ar
    40    38    33   ar
    41    31    27   ar
    42    12     7   ar
    43    18    13   ar
    44    26    21   ar
    45     1     5    1
    46     4     6    1
@<TRIPOS>MOLECULE
*****
 42 46 0 0 0
SMALL
GASTEIGER

@<TRIPOS>ATOM
      1 N          59.8683   89.1496    9.4492 N.am    1  UNL1       -0.2533
      2 C          60.1229   89.8226    8.1331 C.2     1  UNL1        0.3092
      3 O          61.5301   90.0852    7.6848 O.2     1  UNL1       -0.2521
      4 N          58.9704   90.2330    7.2652 N.am    1  UNL1       -0.2680
      5 H          58.9447   88.9773    9.7434 H       1  UNL1        0.1578
      6 H          58.0468   90.0607    7.5593 H       1  UNL1        0.1564
      7 C          59.2251   90.9060    5.9490 C.ar    1  UNL1        0.0516
      8 C          58.0892   91.5290    5.1930 C.ar    1  UNL1        0.0147
      9 C          58.3438   92.2020    3.8769 C.ar    1  UNL1        0.0013
     10 C          59.7344   92.2520    3.3167 C.ar    1  UNL1        0.0016
     11 C          60.8703   91.6290    4.0727 C.ar    1  UNL1        0.0013
     12 C          60.6156   90.9560    5.3888 C.ar    1  UNL1        0.0147
     13 C          59.9891   92.9250    2.0006 C.ar    1  UNL1        0.0194
     14 C          60.2169   92.1006    0.7683 C.ar    1  UNL1        0.0063
     15 C          60.4716   92.7735   -0.5478 C.ar    1  UNL1        0.0577
     16 C          60.4984   94.2709   -0.6317 C.ar    1  UNL1        0.2252
     17 N          60.2706   95.0954    0.6005 N.ar    1  UNL1       -0.2101
     18 C          60.0159   94.4224    1.9167 C.ar    1  UNL1        0.1020
     19 O          60.7531   94.9439   -1.9478 O.3     1  UNL1       -0.4552
     20 C          59.6441   95.0775   -2.9489 C.3     1  UNL1        0.2337
     21 C          58.4210   94.2171   -2.8325 C.ar    1  UNL1        0.0212
     22 C          57.2633   94.6689   -1.9924 C.ar    1  UNL1       -0.0007
     23 C          56.0402   93.8084   -1.8760 C.ar    1  UNL1       -0.0002
     24 C          55.9746   92.4961   -2.5997 C.ar    1  UNL1       -0.0000
     25 C          57.1323   92.0444   -3.4399 C.ar    1  UNL1       -0.0002
     26 C          58.3554   92.9049   -3.5562 C.ar    1  UNL1       -0.0007
     27 N          61.9207   87.5611   10.0888 N.ar    1  UNL1       -0.2162
     28 N          62.9318   87.5287   11.1964 N.ar    1  UNL1       -0.1683
     29 C          62.6567   88.6868   12.1092 C.ar    1  UNL1        0.0810
     30 C          61.4756   89.4349   11.5658 C.ar    1  UNL1        0.0509
     31 C          61.0208   88.7392   10.3171 C.ar    1  UNL1        0.1380
     32 C          61.5427   83.6629    5.5434 C.3     1  UNL1        0.0310
     33 C          61.6372   84.6375    6.6797 C.ar    1  UNL1       -0.0218
     34 C          62.9422   84.8339    7.3927 C.ar    1  UNL1       -0.0027
     35 C          63.0367   85.8084    8.5291 C.ar    1  UNL1        0.0189
     36 C          61.8262   86.5866    8.9524 C.ar    1  UNL1        0.0842
     37 C          60.5213   86.3902    8.2394 C.ar    1  UNL1        0.0189
     38 C          60.4267   85.4156    7.1031 C.ar    1  UNL1       -0.0027
     39 C          63.4274   89.0354   13.3479 C.3     1  UNL1        0.0372
     40 C          63.7677   87.5877   13.5436 C.3     1  UNL1        0.0060
     41 C          63.0870   90.4831   13.1522 C.3     1  UNL1        0.0060
     42 C          64.1981   89.3840   14.5867 C.3     1  UNL1        0.0060
@<TRIPOS>BOND
     1    32    33    1
     2    33    34   ar
     3    34    35   ar
     4    35    36   ar
     5    36    27    1
     6    27    28   ar
     7    28    29   ar
     8    29    39    1
     9    39    40    1
    10    39    41    1
    11    39    42    1
    12    29    30   ar
    13    30    31   ar
    14    31     1    1
    15     1     2   am
    16     2     3    2
    17     2     4   am
    18     4     7    1
    19     7     8   ar
    20     8     9   ar
    21     9    10   ar
    22    10    13    1
    23    13    14   ar
    24    14    15   ar
    25    15    16   ar
    26    16    19    1
    27    19    20    1
    28    20    21    1
    29    21    22   ar
    30    22    23   ar
    31    23    24   ar
    32    24    25   ar
    33    25    26   ar
    34    16    17   ar
    35    17    18   ar
    36    10    11   ar
    37    11    12   ar
    38    36    37   ar
    39    37    38   ar
    40    38    33   ar
    41    31    27   ar
    42    12     7   ar
    43    18    13   ar
    44    26    21   ar
    45     1     5    1
    46     4     6    1
@<TRIPOS>MOLECULE
*****
 42 46 0 0 0
SMALL
GASTEIGER

@<TRIPOS>ATOM
      1 N          60.8325   88.2446   10.0000 N.am    1  UNL1       -0.2533
      2 C          60.7843   89.1986    8.8435 C.2     1  UNL1        0.3092
      3 O          61.7020   90.3847    8.8110 O.2     1  UNL1       -0.2521
      4 N          59.8185   88.9666    7.7195 N.am    1  UNL1       -0.2680
      5 H          60.2302   87.4662   10.0214 H       1  UNL1        0.1578
      6 H          59.2162   88.1881    7.7409 H       1  UNL1        0.1564
      7 C          59.7704   89.9206    6.5630 C.ar    1  UNL1        0.0516
      8 C          61.0333   90.2911    5.8434 C.ar    1  UNL1        0.0147
      9 C          60.9852   91.2452    4.6869 C.ar    1  UNL1        0.0013
     10 C          59.6742   91.8287    4.2500 C.ar    1  UNL1        0.0016
     11 C          58.4114   91.4582    4.9696 C.ar    1  UNL1        0.0013
     12 C          58.4595   90.5041    6.1261 C.ar    1  UNL1        0.0147
     13 C          59.6261   92.7827    3.0935 C.ar    1  UNL1        0.0194
     14 C          59.1172   92.3203    1.7604 C.ar    1  UNL1        0.0063
     15 C          59.0691   93.2743    0.6039 C.ar    1  UNL1        0.0577
     16 C          59.5299   94.6908    0.7805 C.ar    1  UNL1        0.2252
     17 N          60.0388   95.1533    2.1136 N.ar    1  UNL1       -0.2101
     18 C          60.0869   94.1992    3.2701 C.ar    1  UNL1        0.1020
     19 O          59.4818   95.6448   -0.3760 O.3     1  UNL1       -0.4552
     20 C          60.5993   95.6678   -1.3763 C.3     1  UNL1        0.2337
     21 C          62.0068   95.3956   -0.9349 C.ar    1  UNL1        0.0212
     22 C          62.6436   94.0707   -1.2340 C.ar    1  UNL1       -0.0007
     23 C          64.0511   93.7986   -0.7925 C.ar    1  UNL1       -0.0002
     24 C          64.8218   94.8511   -0.0521 C.ar    1  UNL1       -0.0000
     25 C          64.1849   96.1759    0.2470 C.ar    1  UNL1       -0.0002
     26 C          62.7774   96.4481   -0.1945 C.ar    1  UNL1       -0.0007
     27 N          62.6799   87.4411   11.7568 N.ar    1  UNL1       -0.2162
     28 N          63.4785   88.1095   12.8364 N.ar    1  UNL1       -0.1683
     29 C          63.0905   89.5580   12.8709 C.ar    1  UNL1        0.0810
     30 C          62.0520   89.7849   11.8125 C.ar    1  UNL1        0.0509
     31 C          61.7983   88.4766   11.1240 C.ar    1  UNL1        0.1380
     32 C          62.9625   81.6438   10.2365 C.3     1  UNL1        0.0310
     33 C          62.8919   83.0932   10.6166 C.ar    1  UNL1       -0.0218
     34 C          62.9355   84.1503    9.5534 C.ar    1  UNL1       -0.0027
     35 C          62.8649   85.5997    9.9335 C.ar    1  UNL1        0.0189
     36 C          62.7506   85.9918   11.3767 C.ar    1  UNL1        0.0842
     37 C          62.7069   84.9346   12.4399 C.ar    1  UNL1        0.0189
     38 C          62.7775   83.4853   12.0599 C.ar    1  UNL1       -0.0027
     39 C          63.6437   90.5971   13.8005 C.3     1  UNL1        0.0372
     40 C          63.2648   89.7467   14.9766 C.3     1  UNL1        0.0060
     41 C          64.0226   91.4475   12.6243 C.3     1  UNL1        0.0060
     42 C          64.1970   91.6362   14.7300 C.3     1  UNL1        0.0060
@<TRIPOS>BOND
     1    32    33    1
     2    33    34   ar
     3    34    35   ar
     4    35    36   ar
     5    36    27    1
     6    27    28   ar
     7    28    29   ar
     8    29    39    1
     9    39    40    1
    10    39    41    1
    11    39    42    1
    12    29    30   ar
    13    30    31   ar
    14    31     1    1
    15     1     2   am
    16     2     3    2
    17     2     4   am
    18     4     7    1
    19     7     8   ar
    20     8     9   ar
    21     9    10   ar
    22    10    13    1
    23    13    14   ar
    24    14    15   ar
    25    15    16   ar
    26    16    19    1
    27    19    20    1
    28    20    21    1
    29    21    22   ar
    30    22    23   ar
    31    23    24   ar
    32    24    25   ar
    33    25    26   ar
    34    16    17   ar
    35    17    18   ar
    36    10    11   ar
    37    11    12   ar
    38    36    37   ar
    39    37    38   ar
    40    38    33   ar
    41    31    27   ar
    42    12     7   ar
    43    18    13   ar
    44    26    21   ar
    45     1     5    1
    46     4     6    1
@<TRIPOS>MOLECULE
*****
 42 46 0 0 0
SMALL
GASTEIGER

@<TRIPOS>ATOM
      1 N          60.9063   86.1934   11.9291 N.am    1  UNL1       -0.2533
      2 C          60.9384   86.9973   10.6632 C.2     1  UNL1        0.3092
      3 O          62.1626   86.9829    9.7964 O.2     1  UNL1       -0.2521
      4 N          59.7464   87.8156   10.2639 N.am    1  UNL1       -0.2680
      5 H          60.1028   86.2028   12.4979 H       1  UNL1        0.1578
      6 H          58.9429   87.8251   10.8327 H       1  UNL1        0.1564
      7 C          59.7786   88.6195    8.9979 C.ar    1  UNL1        0.0516
      8 C          59.0475   88.1332    7.7818 C.ar    1  UNL1        0.0147
      9 C          59.0797   88.9371    6.5159 C.ar    1  UNL1        0.0013
     10 C          59.8429   90.2274    6.4659 C.ar    1  UNL1        0.0016
     11 C          60.5740   90.7138    7.6821 C.ar    1  UNL1        0.0013
     12 C          60.5418   89.9098    8.9480 C.ar    1  UNL1        0.0147
     13 C          59.8751   91.0313    5.2000 C.ar    1  UNL1        0.0194
     14 C          61.1691   91.2228    4.4658 C.ar    1  UNL1        0.0063
     15 C          61.2012   92.0267    3.1998 C.ar    1  UNL1        0.0577
     16 C          59.9395   92.6391    2.6680 C.ar    1  UNL1        0.2252
     17 N          58.6455   92.4476    3.4022 N.ar    1  UNL1       -0.2101
     18 C          58.6133   91.6437    4.6682 C.ar    1  UNL1        0.1020
     19 O          59.9716   93.4430    1.4021 O.3     1  UNL1       -0.4552
     20 C          59.4940   92.8364    0.1161 C.3     1  UNL1        0.2337
     21 C          58.2763   93.3862   -0.5658 C.ar    1  UNL1        0.0212
     22 C          58.0915   94.8697   -0.6893 C.ar    1  UNL1       -0.0007
     23 C          56.8738   95.4195   -1.3712 C.ar    1  UNL1       -0.0002
     24 C          55.8410   94.4859   -1.9296 C.ar    1  UNL1       -0.0000
     25 C          56.0259   93.0025   -1.8061 C.ar    1  UNL1       -0.0002
     26 C          57.2436   92.4527   -1.1243 C.ar    1  UNL1       -0.0007
     27 N          63.3601   85.8990   12.9475 N.ar    1  UNL1       -0.2162
     28 N          64.2794   84.7368   13.1804 N.ar    1  UNL1       -0.1683
     29 C          63.5858   83.4946   12.7053 C.ar    1  UNL1        0.0810
     30 C          62.2377   83.8891   12.1787 C.ar    1  UNL1        0.0509
     31 C          62.0983   85.3751   12.3284 C.ar    1  UNL1        0.1380
     32 C          64.5256   91.6362   14.2614 C.3     1  UNL1        0.0310
     33 C          64.2343   90.2019   13.9329 C.ar    1  UNL1       -0.0218
     34 C          64.6155   89.1190   14.8983 C.ar    1  UNL1       -0.0027
     35 C          64.3241   87.6847   14.5698 C.ar    1  UNL1        0.0189
     36 C          63.6515   87.3333   13.2760 C.ar    1  UNL1        0.0842
     37 C          63.2703   88.4162   12.3106 C.ar    1  UNL1        0.0189
     38 C          63.5617   89.8505   12.6391 C.ar    1  UNL1       -0.0027
     39 C          64.1424   82.1024   12.7491 C.3     1  UNL1        0.0372
     40 C          64.6001   82.2407   11.3273 C.3     1  UNL1        0.0060
     41 C          63.6847   81.9641   14.1708 C.3     1  UNL1        0.0060
     42 C          64.6990   80.7102   12.7928 C.3     1  UNL1        0.0060
@<TRIPOS>BOND
     1    32    33    1
     2    33    34   ar
     3    34    35   ar
     4    35    36   ar
     5    36    27    1
     6    27    28   ar
     7    28    29   ar
     8    29    39    1
     9    39    40    1
    10    39    41    1
    11    39    42    1
    12    29    30   ar
    13    30    31   ar
    14    31     1    1
    15     1     2   am
    16     2     3    2
    17     2     4   am
    18     4     7    1
    19     7     8   ar
    20     8     9   ar
    21     9    10   ar
    22    10    13    1
    23    13    14   ar
    24    14    15   ar
    25    15    16   ar
    26    16    19    1
    27    19    20    1
    28    20    21    1
    29    21    22   ar
    30    22    23   ar
    31    23    24   ar
    32    24    25   ar
    33    25    26   ar
    34    16    17   ar
    35    17    18   ar
    36    10    11   ar
    37    11    12   ar
    38    36    37   ar
    39    37    38   ar
    40    38    33   ar
    41    31    27   ar
    42    12     7   ar
    43    18    13   ar
    44    26    21   ar
    45     1     5    1
    46     4     6    1
@<TRIPOS>MOLECULE
*****
 42 46 0 0 0
SMALL
GASTEIGER

@<TRIPOS>ATOM
      1 N          59.8567   89.1663    9.4120 N.am    1  UNL1       -0.2533
      2 C          60.1082   89.8447    8.0981 C.2     1  UNL1        0.3092
      3 O          61.5138   90.1252    7.6558 O.2     1  UNL1       -0.2521
      4 N          58.9541   90.2426    7.2264 N.am    1  UNL1       -0.2680
      5 H          58.9342   88.9821    9.7023 H       1  UNL1        0.1578
      6 H          58.0316   90.0585    7.5166 H       1  UNL1        0.1564
      7 C          59.2057   90.9210    5.9125 C.ar    1  UNL1        0.0516
      8 C          58.0727   91.5708    5.1748 C.ar    1  UNL1        0.0147
      9 C          58.3243   92.2492    3.8609 C.ar    1  UNL1        0.0013
     10 C          59.7088   92.2780    3.2845 C.ar    1  UNL1        0.0016
     11 C          60.8418   91.6282    4.0222 C.ar    1  UNL1        0.0013
     12 C          60.5902   90.9498    5.3361 C.ar    1  UNL1        0.0147
     13 C          59.9604   92.9564    1.9706 C.ar    1  UNL1        0.0194
     14 C          60.0953   92.1407    0.7190 C.ar    1  UNL1        0.0063
     15 C          60.3469   92.8192   -0.5949 C.ar    1  UNL1        0.0577
     16 C          60.4635   94.3133   -0.6572 C.ar    1  UNL1        0.2252
     17 N          60.3286   95.1290    0.5943 N.ar    1  UNL1       -0.2101
     18 C          60.0770   94.4506    1.9083 C.ar    1  UNL1        0.1020
     19 O          60.7151   94.9917   -1.9712 O.3     1  UNL1       -0.4552
     20 C          62.1213   95.2530   -2.4233 C.3     1  UNL1        0.2337
     21 C          62.7713   94.3380   -3.4184 C.ar    1  UNL1        0.0212
     22 C          63.6238   93.1985   -2.9443 C.ar    1  UNL1       -0.0007
     23 C          64.2739   92.2836   -3.9395 C.ar    1  UNL1       -0.0002
     24 C          64.0715   92.5081   -5.4088 C.ar    1  UNL1       -0.0000
     25 C          63.2189   93.6477   -5.8828 C.ar    1  UNL1       -0.0002
     26 C          62.5689   94.5626   -4.8876 C.ar    1  UNL1       -0.0007
     27 N          61.9146   87.5911   10.0668 N.ar    1  UNL1       -0.2162
     28 N          62.9260   87.5730   11.1744 N.ar    1  UNL1       -0.1683
     29 C          62.6471   88.7391   12.0758 C.ar    1  UNL1        0.0810
     30 C          61.4634   89.4778   11.5253 C.ar    1  UNL1        0.0509
     31 C          61.0107   88.7683   10.2837 C.ar    1  UNL1        0.1380
     32 C          61.5490   83.6470    5.5601 C.3     1  UNL1        0.0310
     33 C          61.6404   84.6330    6.6868 C.ar    1  UNL1       -0.0218
     34 C          62.9436   84.8371    7.4009 C.ar    1  UNL1       -0.0027
     35 C          63.0350   85.8232    8.5276 C.ar    1  UNL1        0.0189
     36 C          61.8232   86.6050    8.9401 C.ar    1  UNL1        0.0842
     37 C          60.5200   86.4009    8.2260 C.ar    1  UNL1        0.0189
     38 C          60.4286   85.4149    7.0993 C.ar    1  UNL1       -0.0027
     39 C          63.4169   89.1025   13.3109 C.3     1  UNL1        0.0372
     40 C          63.7410   87.6552   13.5348 C.3     1  UNL1        0.0060
     41 C          63.0927   90.5498   13.0870 C.3     1  UNL1        0.0060
     42 C          64.1866   89.4660   14.5460 C.3     1  UNL1        0.0060
@<TRIPOS>BOND
     1    32    33    1
     2    33    34   ar
     3    34    35   ar
     4    35    36   ar
     5    36    27    1
     6    27    28   ar
     7    28    29   ar
     8    29    39    1
     9    39    40    1
    10    39    41    1
    11    39    42    1
    12    29    30   ar
    13    30    31   ar
    14    31     1    1
    15     1     2   am
    16     2     3    2
    17     2     4   am
    18     4     7    1
    19     7     8   ar
    20     8     9   ar
    21     9    10   ar
    22    10    13    1
    23    13    14   ar
    24    14    15   ar
    25    15    16   ar
    26    16    19    1
    27    19    20    1
    28    20    21    1
    29    21    22   ar
    30    22    23   ar
    31    23    24   ar
    32    24    25   ar
    33    25    26   ar
    34    16    17   ar
    35    17    18   ar
    36    10    11   ar
    37    11    12   ar
    38    36    37   ar
    39    37    38   ar
    40    38    33   ar
    41    31    27   ar
    42    12     7   ar
    43    18    13   ar
    44    26    21   ar
    45     1     5    1
    46     4     6    1
@<TRIPOS>MOLECULE
*****
 42 46 0 0 0
SMALL
GASTEIGER

@<TRIPOS>ATOM
      1 N          62.8705   83.7918   13.7619 N.am    1  UNL1       -0.2533
      2 C          63.3259   85.1877   13.4556 C.2     1  UNL1        0.3092
      3 O          63.6575   85.5759   12.0451 O.2     1  UNL1       -0.2521
      4 N          63.4497   86.1956   14.5596 N.am    1  UNL1       -0.2680
      5 H          62.6528   83.5370   14.6877 H       1  UNL1        0.1578
      6 H          63.2320   85.9408   15.4853 H       1  UNL1        0.1564
      7 C          63.9051   87.5915   14.2532 C.ar    1  UNL1        0.0516
      8 C          63.4566   88.2667   12.9910 C.ar    1  UNL1        0.0147
      9 C          63.9120   89.6626   12.6846 C.ar    1  UNL1        0.0013
     10 C          64.8159   90.3835   13.6402 C.ar    1  UNL1        0.0016
     11 C          65.2644   89.7083   14.9024 C.ar    1  UNL1        0.0013
     12 C          64.8090   88.3124   15.2088 C.ar    1  UNL1        0.0147
     13 C          65.2713   91.7794   13.3338 C.ar    1  UNL1        0.0194
     14 C          65.0816   92.3451   11.9576 C.ar    1  UNL1        0.0063
     15 C          65.5371   93.7411   11.6511 C.ar    1  UNL1        0.0577
     16 C          66.1821   94.5713   12.7209 C.ar    1  UNL1        0.2252
     17 N          66.3718   94.0056   14.0972 N.ar    1  UNL1       -0.2101
     18 C          65.9164   92.6097   14.4036 C.ar    1  UNL1        0.1020
     19 O          66.6376   95.9673   12.4145 O.3     1  UNL1       -0.4552
     20 C          65.8019   96.8537   11.5393 C.3     1  UNL1        0.2337
     21 C          65.9816   96.8223   10.0505 C.ar    1  UNL1        0.0212
     22 C          64.7828   96.8548    9.1495 C.ar    1  UNL1       -0.0007
     23 C          64.9625   96.8234    7.6606 C.ar    1  UNL1       -0.0002
     24 C          66.3410   96.7595    7.0727 C.ar    1  UNL1       -0.0000
     25 C          67.5398   96.7269    7.9737 C.ar    1  UNL1       -0.0002
     26 C          67.3601   96.7583    9.4626 C.ar    1  UNL1       -0.0007
     27 N          62.4505   83.0848   11.2186 N.ar    1  UNL1       -0.2162
     28 N          62.4181   81.7850   10.4705 N.ar    1  UNL1       -0.1683
     29 C          62.6943   80.6808   11.4476 C.ar    1  UNL1        0.0810
     30 C          62.8974   81.2982   12.7994 C.ar    1  UNL1        0.0509
     31 C          62.7467   82.7839   12.6579 C.ar    1  UNL1        0.1380
     32 C          61.5528   88.5310    8.8663 C.3     1  UNL1        0.0310
     33 C          61.7772   87.1694    9.4544 C.ar    1  UNL1       -0.0218
     34 C          62.7288   86.2154    8.7954 C.ar    1  UNL1       -0.0027
     35 C          62.9532   84.8539    9.3835 C.ar    1  UNL1        0.0189
     36 C          62.2260   84.4463   10.6305 C.ar    1  UNL1        0.0842
     37 C          61.2744   85.4003   11.2894 C.ar    1  UNL1        0.0189
     38 C          61.0500   86.7619   10.7014 C.ar    1  UNL1       -0.0027
     39 C          62.7565   79.2165   11.1287 C.3     1  UNL1        0.0372
     40 C          62.8049   79.5374    9.6642 C.3     1  UNL1        0.0060
     41 C          62.7081   78.8955   12.5931 C.3     1  UNL1        0.0060
     42 C          62.8187   77.7521   10.8098 C.3     1  UNL1        0.0060
@<TRIPOS>BOND
     1    32    33    1
     2    33    34   ar
     3    34    35   ar
     4    35    36   ar
     5    36    27    1
     6    27    28   ar
     7    28    29   ar
     8    29    39    1
     9    39    40    1
    10    39    41    1
    11    39    42    1
    12    29    30   ar
    13    30    31   ar
    14    31     1    1
    15     1     2   am
    16     2     3    2
    17     2     4   am
    18     4     7    1
    19     7     8   ar
    20     8     9   ar
    21     9    10   ar
    22    10    13    1
    23    13    14   ar
    24    14    15   ar
    25    15    16   ar
    26    16    19    1
    27    19    20    1
    28    20    21    1
    29    21    22   ar
    30    22    23   ar
    31    23    24   ar
    32    24    25   ar
    33    25    26   ar
    34    16    17   ar
    35    17    18   ar
    36    10    11   ar
    37    11    12   ar
    38    36    37   ar
    39    37    38   ar
    40    38    33   ar
    41    31    27   ar
    42    12     7   ar
    43    18    13   ar
    44    26    21   ar
    45     1     5    1
    46     4     6    1
