@<TRIPOS>MOLECULE
*****
 44 48 0 0 0
SMALL
GASTEIGER

@<TRIPOS>ATOM
      1 C          60.9116   92.3634    3.5790 C.2     1  UNL1        0.2458
      2 O          62.3282   91.8808    3.4778 O.2     1  UNL1       -0.2730
      3 N          59.9238   91.6173    4.4261 N.am    1  UNL1       -0.2767
      4 C          58.4811   91.9781    4.6229 C.3     1  UNL1        0.0949
      5 C          57.8709   90.9631    5.5435 C.3     1  UNL1        0.0390
      6 C          58.9364   89.9751    5.9158 C.3     1  UNL1        0.0758
      7 C          60.2051   90.3794    5.2252 C.3     1  UNL1        0.1091
      8 N          58.7636   88.7908    6.8198 N.3     1  UNL1       -0.2982
      9 H          58.7941   87.9611    6.2273 H       1  UNL1        0.1232
     10 C          59.7305   88.5568    7.9426 C.3     1  UNL1        0.0542
     11 C          60.0889   87.1568    8.3442 C.3     1  UNL1        0.0185
     12 C          61.0557   86.9228    9.4669 C.3     1  UNL1        0.0340
     13 C          61.6642   88.0890   10.1879 C.3     1  UNL1        0.1231
     14 O          62.3120   86.9574   10.9294 O.3     1  UNL1       -0.3812
     15 C          61.3058   89.4890    9.7863 C.3     1  UNL1        0.0340
     16 C          60.3390   89.7229    8.6636 C.3     1  UNL1        0.0185
     17 H          62.0053   86.1132   10.5631 H       1  UNL1        0.2107
     18 C          62.4977   88.8621   11.1665 C.ar    1  UNL1        0.0830
     19 C          62.8382   90.2970   10.8927 C.ar    1  UNL1        0.0172
     20 C          63.6717   91.0700   11.8713 C.ar    1  UNL1        0.0059
     21 C          64.1647   90.4080   13.1238 C.ar    1  UNL1        0.0549
     22 C          63.8242   88.9731   13.3976 C.ar    1  UNL1        0.1015
     23 N          62.9907   88.2001   12.4190 N.ar    1  UNL1       -0.2458
     24 C          64.9982   91.1811   14.1025 C.ar    1  UNL1        0.1638
     25 N          64.4335   91.5487   15.4426 N.ar    1  UNL1       -0.2250
     26 C          65.2671   92.3218   16.4212 C.ar    1  UNL1        0.1022
     27 C          66.6652   92.7272   16.0595 C.ar    1  UNL1        0.0414
     28 C          67.2299   92.3596   14.7194 C.ar    1  UNL1        0.1022
     29 N          66.3963   91.5865   13.7408 N.ar    1  UNL1       -0.2250
     30 C          60.4828   93.5921    2.8331 C.3     1  UNL1        0.1761
     31 O          62.1271   93.7664    0.3299 O.2     1  UNL1       -0.2701
     32 C          60.6454   93.5507    0.2405 C.2     1  UNL1        0.2462
     33 N          59.8233   93.4635    1.4920 N.am    1  UNL1       -0.2931
     34 H          58.8508   93.3219    1.4332 H       1  UNL1        0.1502
     35 C          59.9858   93.4221   -1.1006 C.ar    1  UNL1        0.0533
     36 C          60.6182   94.0440   -2.3102 C.ar    1  UNL1        0.0045
     37 C          59.9586   93.9154   -3.6513 C.ar    1  UNL1        0.0001
     38 C          58.6666   93.1649   -3.7827 C.ar    1  UNL1        0.0039
     39 C          58.0342   92.5429   -2.5731 C.ar    1  UNL1        0.0716
     40 C          58.6938   92.6715   -1.2320 C.ar    1  UNL1        0.0084
     41 C          56.7422   91.7924   -2.7046 C.3     1  UNL1        0.4186
     42 F          55.4500   91.0418   -2.8360 F       1  UNL1       -0.1659
     43 F          57.2880   91.0614   -3.8952 F       1  UNL1       -0.1659
     44 F          56.1964   92.5234   -1.5139 F       1  UNL1       -0.1659
@<TRIPOS>BOND
     1    31    32    2
     2    32    33   am
     3    33    30    1
     4    30     1    1
     5     1     2    2
     6     1     3   am
     7     3     4    1
     8     4     5    1
     9     5     6    1
    10     6     8    1
    11    10     8    1
    12    10    11    1
    13    11    12    1
    14    12    13    1
    15    13    14    1
    16    13    18    1
    17    18    19   ar
    18    19    20   ar
    19    20    21   ar
    20    21    24    1
    21    24    25   ar
    22    25    26   ar
    23    26    27   ar
    24    27    28   ar
    25    28    29   ar
    26    21    22   ar
    27    22    23   ar
    28    13    15    1
    29    15    16    1
    30     6     7    1
    31    32    35    1
    32    35    36   ar
    33    36    37   ar
    34    37    38   ar
    35    38    39   ar
    36    39    41    1
    37    41    42    1
    38    41    43    1
    39    41    44    1
    40    39    40   ar
    41     7     3    1
    42    40    35   ar
    43    16    10    1
    44    23    18   ar
    45    29    24   ar
    46    33    34    1
    47     8     9    1
    48    14    17    1
@<TRIPOS>MOLECULE
*****
 44 48 0 0 0
SMALL
GASTEIGER

@<TRIPOS>ATOM
      1 C          60.9381   92.2946    3.5665 C.2     1  UNL1        0.2458
      2 O          62.3593   91.8160    3.5354 O.2     1  UNL1       -0.2730
      3 N          59.9238   91.5786    4.4082 N.am    1  UNL1       -0.2767
      4 C          58.4736   91.9394    4.5388 C.3     1  UNL1        0.0949
      5 C          57.8351   90.9599    5.4784 C.3     1  UNL1        0.0390
      6 C          58.8906   89.9937    5.9285 C.3     1  UNL1        0.0758
      7 C          60.1815   90.3762    5.2671 C.3     1  UNL1        0.1091
      8 N          58.6905   88.8466    6.8740 N.3     1  UNL1       -0.2982
      9 H          58.6697   87.9985    6.3078 H       1  UNL1        0.1232
     10 C          59.6752   88.6052    7.9795 C.3     1  UNL1        0.0542
     11 C          60.0476   87.2027    8.3592 C.3     1  UNL1        0.0185
     12 C          61.0323   86.9614    9.4647 C.3     1  UNL1        0.0340
     13 C          61.6446   88.1226   10.1905 C.3     1  UNL1        0.1231
     14 O          62.3099   86.9863   10.9089 O.3     1  UNL1       -0.3812
     15 C          61.2722   89.5251    9.8108 C.3     1  UNL1        0.0340
     16 C          60.2875   89.7664    8.7053 C.3     1  UNL1        0.0185
     17 H          62.0027   86.1446   10.5372 H       1  UNL1        0.2107
     18 C          62.4880   88.8891   11.1658 C.ar    1  UNL1        0.0830
     19 C          62.8415   90.3203   10.8889 C.ar    1  UNL1        0.0172
     20 C          63.6849   91.0867   11.8643 C.ar    1  UNL1        0.0059
     21 C          64.1747   90.4219   13.1165 C.ar    1  UNL1        0.0549
     22 C          63.8212   88.9907   13.3933 C.ar    1  UNL1        0.1015
     23 N          62.9779   88.2243   12.4180 N.ar    1  UNL1       -0.2458
     24 C          65.0181   91.1884   14.0919 C.ar    1  UNL1        0.1638
     25 N          64.4416   91.6133   15.4098 N.ar    1  UNL1       -0.2250
     26 C          65.2851   92.3798   16.3851 C.ar    1  UNL1        0.1022
     27 C          66.7049   92.7213   16.0424 C.ar    1  UNL1        0.0414
     28 C          67.2814   92.2963   14.7244 C.ar    1  UNL1        0.1022
     29 N          66.4379   91.5298   13.7491 N.ar    1  UNL1       -0.2250
     30 C          60.5312   93.4893    2.7558 C.3     1  UNL1        0.1761
     31 O          60.7862   92.0332    0.1453 O.2     1  UNL1       -0.2701
     32 C          61.5707   93.2894    0.3832 C.2     1  UNL1        0.2462
     33 N          61.4432   94.0174    1.6884 N.am    1  UNL1       -0.2931
     34 H          61.9581   94.8419    1.8445 H       1  UNL1        0.1502
     35 C          62.4827   93.8176   -0.6842 C.ar    1  UNL1        0.0533
     36 C          63.2676   95.0734   -0.4461 C.ar    1  UNL1        0.0045
     37 C          64.1796   95.6016   -1.5135 C.ar    1  UNL1        0.0001
     38 C          64.3067   94.8739   -2.8189 C.ar    1  UNL1        0.0039
     39 C          63.5218   93.6181   -3.0570 C.ar    1  UNL1        0.0716
     40 C          62.6098   93.0899   -1.9897 C.ar    1  UNL1        0.0084
     41 C          63.6489   92.8904   -4.3625 C.3     1  UNL1        0.4186
     42 F          63.7761   92.1626   -5.6680 F       1  UNL1       -0.1659
     43 F          62.6323   93.8087   -4.9734 F       1  UNL1       -0.1659
     44 F          64.6656   91.9721   -3.7517 F       1  UNL1       -0.1659
@<TRIPOS>BOND
     1    31    32    2
     2    32    33   am
     3    33    30    1
     4    30     1    1
     5     1     2    2
     6     1     3   am
     7     3     4    1
     8     4     5    1
     9     5     6    1
    10     6     8    1
    11    10     8    1
    12    10    11    1
    13    11    12    1
    14    12    13    1
    15    13    14    1
    16    13    18    1
    17    18    19   ar
    18    19    20   ar
    19    20    21   ar
    20    21    24    1
    21    24    25   ar
    22    25    26   ar
    23    26    27   ar
    24    27    28   ar
    25    28    29   ar
    26    21    22   ar
    27    22    23   ar
    28    13    15    1
    29    15    16    1
    30     6     7    1
    31    32    35    1
    32    35    36   ar
    33    36    37   ar
    34    37    38   ar
    35    38    39   ar
    36    39    41    1
    37    41    42    1
    38    41    43    1
    39    41    44    1
    40    39    40   ar
    41     7     3    1
    42    40    35   ar
    43    16    10    1
    44    23    18   ar
    45    29    24   ar
    46    33    34    1
    47     8     9    1
    48    14    17    1
@<TRIPOS>MOLECULE
*****
 44 48 0 0 0
SMALL
GASTEIGER

@<TRIPOS>ATOM
      1 C          62.0967   89.3744   11.1355 C.2     1  UNL1        0.2458
      2 O          61.8690   90.8254   11.4400 O.2     1  UNL1       -0.2730
      3 N          61.3313   88.7112   10.0290 N.am    1  UNL1       -0.2767
      4 C          61.4516   87.2756    9.6111 C.3     1  UNL1        0.0949
      5 C          60.5059   87.0443    8.4700 C.3     1  UNL1        0.0390
      6 C          59.8011   88.3369    8.1827 C.3     1  UNL1        0.0758
      7 C          60.3112   89.3671    9.1463 C.3     1  UNL1        0.1091
      8 N          58.7677   88.5601    7.1187 N.3     1  UNL1       -0.2982
      9 H          57.8785   88.7035    7.5974 H       1  UNL1        0.1232
     10 C          58.9239   89.6922    6.1471 C.3     1  UNL1        0.0542
     11 C          57.7269   90.4957    5.7329 C.3     1  UNL1        0.0185
     12 C          57.8832   91.6277    4.7613 C.3     1  UNL1        0.0340
     13 C          59.2365   91.9563    4.2039 C.3     1  UNL1        0.1231
     14 O          58.4098   92.9997    3.5128 O.3     1  UNL1       -0.3812
     15 C          60.4335   91.1528    4.6181 C.3     1  UNL1        0.0340
     16 C          60.2772   90.0208    5.5897 C.3     1  UNL1        0.0185
     17 H          57.4826   92.9090    3.7832 H       1  UNL1        0.2107
     18 C          60.3026   92.6473    3.4065 C.ar    1  UNL1        0.0830
     19 C          61.6734   92.0464    3.3075 C.ar    1  UNL1        0.0172
     20 C          62.7395   92.7375    2.5100 C.ar    1  UNL1        0.0059
     21 C          62.4347   94.0295    1.8115 C.ar    1  UNL1        0.0549
     22 C          61.0639   94.6304    1.9105 C.ar    1  UNL1        0.1015
     23 N          59.9979   93.9393    2.7080 N.ar    1  UNL1       -0.2458
     24 C          63.5008   94.7205    1.0140 C.ar    1  UNL1        0.1638
     25 N          63.6357   94.4458   -0.4544 N.ar    1  UNL1       -0.2250
     26 C          64.7019   95.1369   -1.2518 C.ar    1  UNL1        0.1022
     27 C          65.6330   96.1026   -0.5807 C.ar    1  UNL1        0.0414
     28 C          65.4981   96.3773    0.8877 C.ar    1  UNL1        0.1022
     29 N          64.4319   95.6862    1.6851 N.ar    1  UNL1       -0.2250
     30 C          63.0897   88.5867   11.9376 C.3     1  UNL1        0.1761
     31 O          64.1482   87.2035   14.3802 O.2     1  UNL1       -0.2701
     32 C          63.4512   86.4126   13.3132 C.2     1  UNL1        0.2462
     33 N          62.9220   87.1041   12.0920 N.am    1  UNL1       -0.2931
     34 H          62.4645   86.5849   11.3917 H       1  UNL1        0.1502
     35 C          63.2834   84.9300   13.4676 C.ar    1  UNL1        0.0533
     36 C          63.1030   84.3336   14.8320 C.ar    1  UNL1        0.0045
     37 C          62.9352   82.8510   14.9863 C.ar    1  UNL1        0.0001
     38 C          62.9477   81.9648   13.7762 C.ar    1  UNL1        0.0039
     39 C          63.1281   82.5612   12.4117 C.ar    1  UNL1        0.0716
     40 C          63.2959   84.0438   12.2574 C.ar    1  UNL1        0.0084
     41 C          63.1406   81.6750   11.2016 C.3     1  UNL1        0.4186
     42 F          63.1532   80.7887    9.9914 F       1  UNL1       -0.1659
     43 F          63.6014   82.8289   10.3613 F       1  UNL1       -0.1659
     44 F          62.6799   80.5210   12.0419 F       1  UNL1       -0.1659
@<TRIPOS>BOND
     1    31    32    2
     2    32    33   am
     3    33    30    1
     4    30     1    1
     5     1     2    2
     6     1     3   am
     7     3     4    1
     8     4     5    1
     9     5     6    1
    10     6     8    1
    11    10     8    1
    12    10    11    1
    13    11    12    1
    14    12    13    1
    15    13    14    1
    16    13    18    1
    17    18    19   ar
    18    19    20   ar
    19    20    21   ar
    20    21    24    1
    21    24    25   ar
    22    25    26   ar
    23    26    27   ar
    24    27    28   ar
    25    28    29   ar
    26    21    22   ar
    27    22    23   ar
    28    13    15    1
    29    15    16    1
    30     6     7    1
    31    32    35    1
    32    35    36   ar
    33    36    37   ar
    34    37    38   ar
    35    38    39   ar
    36    39    41    1
    37    41    42    1
    38    41    43    1
    39    41    44    1
    40    39    40   ar
    41     7     3    1
    42    40    35   ar
    43    16    10    1
    44    23    18   ar
    45    29    24   ar
    46    33    34    1
    47     8     9    1
    48    14    17    1
@<TRIPOS>MOLECULE
*****
 44 48 0 0 0
SMALL
GASTEIGER

@<TRIPOS>ATOM
      1 C          61.7481   92.3032    3.1825 C.2     1  UNL1        0.2458
      2 O          63.0518   91.5738    3.3176 O.2     1  UNL1       -0.2730
      3 N          60.5469   91.8414    3.9533 N.am    1  UNL1       -0.2767
      4 C          59.1840   92.4670    3.9200 C.3     1  UNL1        0.0949
      5 C          58.2926   91.6852    4.8388 C.3     1  UNL1        0.0390
      6 C          59.1046   90.5765    5.4399 C.3     1  UNL1        0.0758
      7 C          60.4979   90.6730    4.8926 C.3     1  UNL1        0.1091
      8 N          58.6102   89.5512    6.4168 N.3     1  UNL1       -0.2982
      9 H          58.3357   88.7337    5.8720 H       1  UNL1        0.1232
     10 C          59.5127   89.0601    7.5097 C.3     1  UNL1        0.0542
     11 C          60.3408   90.0348    8.2933 C.3     1  UNL1        0.0185
     12 C          61.2432   89.5437    9.3862 C.3     1  UNL1        0.0340
     13 C          61.3174   88.0778    9.6955 C.3     1  UNL1        0.1231
     14 O          62.2885   88.6073   10.7087 O.3     1  UNL1       -0.3812
     15 C          60.4893   87.1031    8.9119 C.3     1  UNL1        0.0340
     16 C          59.5869   87.5942    7.8190 C.3     1  UNL1        0.0185
     17 H          62.3474   89.5721   10.6267 H       1  UNL1        0.2107
     18 C          61.7290   86.7959   10.3568 C.ar    1  UNL1        0.0830
     19 C          62.2983   85.6773    9.5354 C.ar    1  UNL1        0.0172
     20 C          62.7098   84.3953   10.1968 C.ar    1  UNL1        0.0059
     21 C          62.5520   84.2321   11.6794 C.ar    1  UNL1        0.0549
     22 C          61.9827   85.3507   12.5008 C.ar    1  UNL1        0.1015
     23 N          61.5712   86.6325   11.8395 N.ar    1  UNL1       -0.2458
     24 C          62.9636   82.9501   12.3408 C.ar    1  UNL1        0.1638
     25 N          62.3989   81.6450   11.8634 N.ar    1  UNL1       -0.2250
     26 C          62.8105   80.3631   12.5248 C.ar    1  UNL1        0.1022
     27 C          63.7867   80.3864   13.6633 C.ar    1  UNL1        0.0414
     28 C          64.3514   81.6914   14.1407 C.ar    1  UNL1        0.1022
     29 N          63.9398   82.9733   13.4793 N.ar    1  UNL1       -0.2250
     30 C          61.6454   93.4943    2.2765 C.3     1  UNL1        0.1761
     31 O          62.7581   93.3976   -0.5079 O.2     1  UNL1       -0.2701
     32 C          61.2736   93.4146   -0.2936 C.2     1  UNL1        0.2462
     33 N          60.7173   93.4630    1.0986 N.am    1  UNL1       -0.2931
     34 H          59.7429   93.4742    1.2392 H       1  UNL1        0.1502
     35 C          60.3453   93.3834   -1.4714 C.ar    1  UNL1        0.0533
     36 C          60.7427   94.0456   -2.7573 C.ar    1  UNL1        0.0045
     37 C          59.8145   94.0143   -3.9352 C.ar    1  UNL1        0.0001
     38 C          58.4888   93.3208   -3.8272 C.ar    1  UNL1        0.0039
     39 C          58.0914   92.6586   -2.5413 C.ar    1  UNL1        0.0716
     40 C          59.0197   92.6899   -1.3634 C.ar    1  UNL1        0.0084
     41 C          56.7658   91.9651   -2.4333 C.3     1  UNL1        0.4186
     42 F          55.4400   91.2716   -2.3253 F       1  UNL1       -0.1659
     43 F          56.8463   91.5856   -3.8823 F       1  UNL1       -0.1659
     44 F          56.6853   92.3446   -0.9844 F       1  UNL1       -0.1659
@<TRIPOS>BOND
     1    31    32    2
     2    32    33   am
     3    33    30    1
     4    30     1    1
     5     1     2    2
     6     1     3   am
     7     3     4    1
     8     4     5    1
     9     5     6    1
    10     6     8    1
    11    10     8    1
    12    10    11    1
    13    11    12    1
    14    12    13    1
    15    13    14    1
    16    13    18    1
    17    18    19   ar
    18    19    20   ar
    19    20    21   ar
    20    21    24    1
    21    24    25   ar
    22    25    26   ar
    23    26    27   ar
    24    27    28   ar
    25    28    29   ar
    26    21    22   ar
    27    22    23   ar
    28    13    15    1
    29    15    16    1
    30     6     7    1
    31    32    35    1
    32    35    36   ar
    33    36    37   ar
    34    37    38   ar
    35    38    39   ar
    36    39    41    1
    37    41    42    1
    38    41    43    1
    39    41    44    1
    40    39    40   ar
    41     7     3    1
    42    40    35   ar
    43    16    10    1
    44    23    18   ar
    45    29    24   ar
    46    33    34    1
    47     8     9    1
    48    14    17    1
@<TRIPOS>MOLECULE
*****
 44 48 0 0 0
SMALL
GASTEIGER

@<TRIPOS>ATOM
      1 C          62.1031   90.3237   10.7962 C.2     1  UNL1        0.2458
      2 O          62.8052   91.4838   10.1549 O.2     1  UNL1       -0.2730
      3 N          61.0721   89.5525   10.0266 N.am    1  UNL1       -0.2767
      4 C          60.2918   88.3756   10.5329 C.3     1  UNL1        0.0949
      5 C          59.3778   87.9186    9.4348 C.3     1  UNL1        0.0390
      6 C          59.5932   88.8129    8.2500 C.3     1  UNL1        0.0758
      7 C          60.6403   89.8228    8.6158 C.3     1  UNL1        0.1091
      8 N          58.8856   88.7147    6.9310 N.3     1  UNL1       -0.2982
      9 H          57.8905   88.6266    7.1366 H       1  UNL1        0.1232
     10 C          59.0235   89.8162    5.9221 C.3     1  UNL1        0.0542
     11 C          57.8025   90.5201    5.4086 C.3     1  UNL1        0.0185
     12 C          57.9404   91.6215    4.3998 C.3     1  UNL1        0.0340
     13 C          59.2993   92.0190    3.9044 C.3     1  UNL1        0.1231
     14 O          58.4475   92.9764    3.1248 O.3     1  UNL1       -0.3812
     15 C          60.5203   91.3152    4.4179 C.3     1  UNL1        0.0340
     16 C          60.3824   90.2138    5.4268 C.3     1  UNL1        0.0185
     17 H          57.5142   92.8337    3.3473 H       1  UNL1        0.2107
     18 C          60.3623   92.7491    3.1383 C.ar    1  UNL1        0.0830
     19 C          61.7564   92.1987    3.0795 C.ar    1  UNL1        0.0172
     20 C          62.8194   92.9289    2.3133 C.ar    1  UNL1        0.0059
     21 C          62.4881   94.2095    1.6059 C.ar    1  UNL1        0.0549
     22 C          61.0940   94.7599    1.6647 C.ar    1  UNL1        0.1015
     23 N          60.0311   94.0297    2.4308 N.ar    1  UNL1       -0.2458
     24 C          63.5512   94.9396    0.8397 C.ar    1  UNL1        0.1638
     25 N          63.7464   94.6629   -0.6215 N.ar    1  UNL1       -0.2250
     26 C          64.8094   95.3931   -1.3876 C.ar    1  UNL1        0.1022
     27 C          65.6771   96.3999   -0.6925 C.ar    1  UNL1        0.0414
     28 C          65.4819   96.6766    0.7688 C.ar    1  UNL1        0.1022
     29 N          64.4189   95.9464    1.5349 N.ar    1  UNL1       -0.2250
     30 C          62.4321   89.9348   12.2070 C.3     1  UNL1        0.1761
     31 O          64.4374   88.6948   14.0621 O.2     1  UNL1       -0.2701
     32 C          64.3292   90.1876   13.9640 C.2     1  UNL1        0.2462
     33 N          63.3267   90.8076   13.0365 N.am    1  UNL1       -0.2931
     34 H          63.2557   91.7875   12.9722 H       1  UNL1        0.1502
     35 C          65.2237   91.0605   14.7935 C.ar    1  UNL1        0.0533
     36 C          64.7078   91.6725   16.0621 C.ar    1  UNL1        0.0045
     37 C          65.6023   92.5454   16.8915 C.ar    1  UNL1        0.0001
     38 C          67.0127   92.8063   16.4524 C.ar    1  UNL1        0.0039
     39 C          67.5285   92.1943   15.1838 C.ar    1  UNL1        0.0716
     40 C          66.6340   91.3214   14.3544 C.ar    1  UNL1        0.0084
     41 C          68.9388   92.4552   14.7447 C.3     1  UNL1        0.4186
     42 F          70.3493   92.7161   14.3055 F       1  UNL1       -0.1659
     43 F          69.1541   93.3211   15.9505 F       1  UNL1       -0.1659
     44 F          68.7236   91.5894   13.5389 F       1  UNL1       -0.1659
@<TRIPOS>BOND
     1    31    32    2
     2    32    33   am
     3    33    30    1
     4    30     1    1
     5     1     2    2
     6     1     3   am
     7     3     4    1
     8     4     5    1
     9     5     6    1
    10     6     8    1
    11    10     8    1
    12    10    11    1
    13    11    12    1
    14    12    13    1
    15    13    14    1
    16    13    18    1
    17    18    19   ar
    18    19    20   ar
    19    20    21   ar
    20    21    24    1
    21    24    25   ar
    22    25    26   ar
    23    26    27   ar
    24    27    28   ar
    25    28    29   ar
    26    21    22   ar
    27    22    23   ar
    28    13    15    1
    29    15    16    1
    30     6     7    1
    31    32    35    1
    32    35    36   ar
    33    36    37   ar
    34    37    38   ar
    35    38    39   ar
    36    39    41    1
    37    41    42    1
    38    41    43    1
    39    41    44    1
    40    39    40   ar
    41     7     3    1
    42    40    35   ar
    43    16    10    1
    44    23    18   ar
    45    29    24   ar
    46    33    34    1
    47     8     9    1
    48    14    17    1
@<TRIPOS>MOLECULE
*****
 44 48 0 0 0
SMALL
GASTEIGER

@<TRIPOS>ATOM
      1 C          61.1944   88.9386   12.0592 C.2     1  UNL1        0.2458
      2 O          60.1639   89.7032   12.8360 O.2     1  UNL1       -0.2730
      3 N          60.9354   88.5723   10.6279 N.am    1  UNL1       -0.2767
      4 C          61.8668   87.8137    9.7294 C.3     1  UNL1        0.0949
      5 C          61.2065   87.6729    8.3900 C.3     1  UNL1        0.0390
      6 C          59.8671   88.3444    8.4605 C.3     1  UNL1        0.0758
      7 C          59.6995   88.9003    9.8436 C.3     1  UNL1        0.1091
      8 N          58.8703   88.4428    7.3440 N.3     1  UNL1       -0.2982
      9 H          57.9511   88.5327    7.7770 H       1  UNL1        0.1232
     10 C          58.9825   89.5456    6.3334 C.3     1  UNL1        0.0542
     11 C          57.7604   90.3099    5.9183 C.3     1  UNL1        0.0185
     12 C          57.8727   91.4126    4.9077 C.3     1  UNL1        0.0340
     13 C          59.2071   91.7510    4.3121 C.3     1  UNL1        0.1231
     14 O          58.3443   92.7538    3.6050 O.3     1  UNL1       -0.3812
     15 C          60.4292   90.9868    4.7271 C.3     1  UNL1        0.0340
     16 C          60.3169   89.8841    5.7378 C.3     1  UNL1        0.0185
     17 H          57.4250   92.6526    3.8973 H       1  UNL1        0.2107
     18 C          60.2418   92.4378    3.4709 C.ar    1  UNL1        0.0830
     19 C          61.6474   91.9152    3.4357 C.ar    1  UNL1        0.0172
     20 C          62.6821   92.6021    2.5944 C.ar    1  UNL1        0.0059
     21 C          62.3111   93.8115    1.7884 C.ar    1  UNL1        0.0549
     22 C          60.9056   94.3341    1.8236 C.ar    1  UNL1        0.1015
     23 N          59.8709   93.6473    2.6649 N.ar    1  UNL1       -0.2458
     24 C          63.3459   94.4983    0.9471 C.ar    1  UNL1        0.1638
     25 N          63.3169   94.3518   -0.5454 N.ar    1  UNL1       -0.2250
     26 C          64.3517   95.0387   -1.3866 C.ar    1  UNL1        0.1022
     27 C          65.4153   95.8719   -0.7352 C.ar    1  UNL1        0.0414
     28 C          65.4443   96.0184    0.7573 C.ar    1  UNL1        0.1022
     29 N          64.4095   95.3315    1.5985 N.ar    1  UNL1       -0.2250
     30 C          62.4839   88.5401   12.7138 C.3     1  UNL1        0.1761
     31 O          62.9646   90.3027   15.0934 O.2     1  UNL1       -0.2701
     32 C          63.8859   90.3703   13.9116 C.2     1  UNL1        0.2462
     33 N          63.6455   89.4890   12.7219 N.am    1  UNL1       -0.2931
     34 H          64.2502   89.5334   11.9462 H       1  UNL1        0.1502
     35 C          65.0477   91.3192   13.9195 C.ar    1  UNL1        0.0533
     36 C          66.0208   91.3038   15.0609 C.ar    1  UNL1        0.0045
     37 C          67.1825   92.2527   15.0689 C.ar    1  UNL1        0.0001
     38 C          67.3711   93.2169   13.9354 C.ar    1  UNL1        0.0039
     39 C          66.3980   93.2322   12.7940 C.ar    1  UNL1        0.0716
     40 C          65.2363   92.2833   12.7861 C.ar    1  UNL1        0.0084
     41 C          66.5866   94.1964   11.6606 C.3     1  UNL1        0.4186
     42 F          66.7752   95.1607   10.5271 F       1  UNL1       -0.1659
     43 F          66.9552   93.0592   10.7545 F       1  UNL1       -0.1659
     44 F          66.2181   95.3336   12.5666 F       1  UNL1       -0.1659
@<TRIPOS>BOND
     1    31    32    2
     2    32    33   am
     3    33    30    1
     4    30     1    1
     5     1     2    2
     6     1     3   am
     7     3     4    1
     8     4     5    1
     9     5     6    1
    10     6     8    1
    11    10     8    1
    12    10    11    1
    13    11    12    1
    14    12    13    1
    15    13    14    1
    16    13    18    1
    17    18    19   ar
    18    19    20   ar
    19    20    21   ar
    20    21    24    1
    21    24    25   ar
    22    25    26   ar
    23    26    27   ar
    24    27    28   ar
    25    28    29   ar
    26    21    22   ar
    27    22    23   ar
    28    13    15    1
    29    15    16    1
    30     6     7    1
    31    32    35    1
    32    35    36   ar
    33    36    37   ar
    34    37    38   ar
    35    38    39   ar
    36    39    41    1
    37    41    42    1
    38    41    43    1
    39    41    44    1
    40    39    40   ar
    41     7     3    1
    42    40    35   ar
    43    16    10    1
    44    23    18   ar
    45    29    24   ar
    46    33    34    1
    47     8     9    1
    48    14    17    1
