@<TRIPOS>MOLECULE
*****
 26 29 0 0 0
SMALL
GASTEIGER

@<TRIPOS>ATOM
      1 C          63.0349   85.6022   12.3796 C.ar    1  UNL1       -0.0002
      2 C          63.7401   86.3135   13.4961 C.ar    1  UNL1       -0.0003
      3 C          63.8478   87.8095   13.4826 C.ar    1  UNL1       -0.0043
      4 C          63.2504   88.5942   12.3524 C.ar    1  UNL1       -0.0224
      5 C          62.5452   87.8830   11.2359 C.ar    1  UNL1       -0.0258
      6 C          62.4374   86.3869   11.2494 C.ar    1  UNL1       -0.0046
      7 C          61.9477   88.6677   10.1057 C.3     1  UNL1        0.0261
      8 C          62.0554   90.1637   10.0922 C.3     1  UNL1        0.0053
      9 C          62.7607   90.8751   11.2088 C.3     1  UNL1        0.0091
     10 C          63.3581   90.0904   12.3389 C.3     1  UNL1        0.0444
     11 O          62.6038   79.6179   12.4338 O.3     1  UNL1       -0.5029
     12 C          62.7116   81.1139   12.4202 C.ar    1  UNL1        0.1675
     13 C          63.1701   81.8216   11.1797 C.ar    1  UNL1        0.0398
     14 C          63.2779   83.3177   11.1662 C.ar    1  UNL1        0.0033
     15 C          62.9271   84.1061   12.3931 C.ar    1  UNL1        0.0032
     16 C          62.4687   83.3984   13.6337 C.ar    1  UNL1        0.0398
     17 C          62.3609   81.9023   13.6472 C.ar    1  UNL1        0.1675
     18 O          61.9024   81.1946   14.8878 O.3     1  UNL1       -0.5029
     19 H          62.8229   79.1254   11.6674 H       1  UNL1        0.2923
     20 H          61.6833   81.6871   15.6542 H       1  UNL1        0.2923
     21 C          64.0633   90.8016   13.4554 C.ar    1  UNL1       -0.0154
     22 C          65.2711   91.6423   13.1647 C.ar    1  UNL1        0.0167
     23 C          65.9762   92.3536   14.2813 C.ar    1  UNL1        0.0986
     24 N          65.4737   92.2242   15.6887 N.ar    1  UNL1       -0.2423
     25 C          64.2659   91.3835   15.9794 C.ar    1  UNL1        0.0986
     26 C          63.5607   90.6722   14.8629 C.ar    1  UNL1        0.0167
@<TRIPOS>BOND
     1    11    12    1
     2    12    13   ar
     3    13    14   ar
     4    14    15   ar
     5    15     1    1
     6     1     2   ar
     7     2     3   ar
     8     3     4   ar
     9     4     5   ar
    10     5     6   ar
    11     5     7    1
    12     7     8    1
    13     8     9    1
    14     9    10    1
    15    10    21    1
    16    21    22   ar
    17    22    23   ar
    18    23    24   ar
    19    24    25   ar
    20    25    26   ar
    21    15    16   ar
    22    16    17   ar
    23    17    18    1
    24    17    12   ar
    25     6     1   ar
    26    26    21   ar
    27    10     4    1
    28    11    19    1
    29    18    20    1
@<TRIPOS>MOLECULE
*****
 26 29 0 0 0
SMALL
GASTEIGER

@<TRIPOS>ATOM
      1 C          63.0449   85.6922   12.7121 C.ar    1  UNL1       -0.0002
      2 C          63.7613   86.4478   13.7918 C.ar    1  UNL1       -0.0003
      3 C          63.9165   87.9362   13.6890 C.ar    1  UNL1       -0.0043
      4 C          63.3554   88.6689   12.5066 C.ar    1  UNL1       -0.0224
      5 C          62.6390   87.9133   11.4269 C.ar    1  UNL1       -0.0258
      6 C          62.4837   86.4249   11.5296 C.ar    1  UNL1       -0.0046
      7 C          62.0778   88.6460   10.2444 C.3     1  UNL1        0.0261
      8 C          62.2331   90.1344   10.1417 C.3     1  UNL1        0.0053
      9 C          62.9495   90.8901   11.2214 C.3     1  UNL1        0.0091
     10 C          63.5106   90.1574   12.4038 C.3     1  UNL1        0.0444
     11 O          62.4239   79.7385   13.1229 O.3     1  UNL1       -0.5029
     12 C          62.5791   81.2269   13.0202 C.ar    1  UNL1        0.1675
     13 C          62.3956   82.0858   14.2362 C.ar    1  UNL1        0.0398
     14 C          62.5508   83.5742   14.1335 C.ar    1  UNL1        0.0033
     15 C          62.8896   84.2037   12.8148 C.ar    1  UNL1        0.0032
     16 C          63.0732   83.3448   11.5988 C.ar    1  UNL1        0.0398
     17 C          62.9179   81.8565   11.7015 C.ar    1  UNL1        0.1675
     18 O          63.1015   80.9976   10.4855 O.3     1  UNL1       -0.5029
     19 H          62.2122   79.3453   13.9466 H       1  UNL1        0.2923
     20 H          63.3131   81.3908    9.6618 H       1  UNL1        0.2923
     21 C          64.2270   90.9130   13.4835 C.ar    1  UNL1       -0.0154
     22 C          65.4113   91.7678   13.1415 C.ar    1  UNL1        0.0167
     23 C          66.1277   92.5234   14.2213 C.ar    1  UNL1        0.0986
     24 N          65.6598   92.4243   15.6430 N.ar    1  UNL1       -0.2423
     25 C          64.4756   91.5695   15.9850 C.ar    1  UNL1        0.0986
     26 C          63.7592   90.8138   14.9053 C.ar    1  UNL1        0.0167
@<TRIPOS>BOND
     1    11    12    1
     2    12    13   ar
     3    13    14   ar
     4    14    15   ar
     5    15     1    1
     6     1     2   ar
     7     2     3   ar
     8     3     4   ar
     9     4     5   ar
    10     5     6   ar
    11     5     7    1
    12     7     8    1
    13     8     9    1
    14     9    10    1
    15    10    21    1
    16    21    22   ar
    17    22    23   ar
    18    23    24   ar
    19    24    25   ar
    20    25    26   ar
    21    15    16   ar
    22    16    17   ar
    23    17    18    1
    24    17    12   ar
    25     6     1   ar
    26    26    21   ar
    27    10     4    1
    28    11    19    1
    29    18    20    1
@<TRIPOS>MOLECULE
*****
 26 29 0 0 0
SMALL
GASTEIGER

@<TRIPOS>ATOM
      1 C          64.4301   89.0307   13.9853 C.ar    1  UNL1       -0.0002
      2 C          64.6288   87.6805   14.6077 C.ar    1  UNL1       -0.0003
      3 C          63.9930   86.4697   13.9914 C.ar    1  UNL1       -0.0043
      4 C          63.1584   86.6092   12.7528 C.ar    1  UNL1       -0.0224
      5 C          62.9597   87.9595   12.1305 C.ar    1  UNL1       -0.0258
      6 C          63.5955   89.1702   12.7468 C.ar    1  UNL1       -0.0046
      7 C          62.1252   88.0990   10.8919 C.3     1  UNL1        0.0261
      8 C          61.4893   86.8882   10.2757 C.3     1  UNL1        0.0053
      9 C          61.6880   85.5379   10.8980 C.3     1  UNL1        0.0091
     10 C          62.5226   85.3984   12.1366 C.3     1  UNL1        0.0444
     11 O          66.9733   93.8739   16.4503 O.3     1  UNL1       -0.5029
     12 C          66.3375   92.6631   15.8340 C.ar    1  UNL1        0.1675
     13 C          67.0964   91.8461   14.8307 C.ar    1  UNL1        0.0398
     14 C          66.4606   90.6353   14.2145 C.ar    1  UNL1        0.0033
     15 C          65.0659   90.2415   14.6016 C.ar    1  UNL1        0.0032
     16 C          64.3071   91.0585   15.6049 C.ar    1  UNL1        0.0398
     17 C          64.9428   92.2693   16.2211 C.ar    1  UNL1        0.1675
     18 O          64.1839   93.0863   17.2244 O.3     1  UNL1       -0.5029
     19 H          67.8445   94.1199   16.2085 H       1  UNL1        0.2923
     20 H          63.3127   92.8403   17.4662 H       1  UNL1        0.2923
     21 C          62.7213   84.0482   12.7589 C.ar    1  UNL1       -0.0154
     22 C          62.0827   83.7291   14.0782 C.ar    1  UNL1        0.0167
     23 C          62.2815   82.3787   14.7005 C.ar    1  UNL1        0.0986
     24 N          63.1188   81.3476   14.0036 N.ar    1  UNL1       -0.2423
     25 C          63.7574   81.6668   12.6844 C.ar    1  UNL1        0.0986
     26 C          63.5586   83.0170   12.0620 C.ar    1  UNL1        0.0167
@<TRIPOS>BOND
     1    11    12    1
     2    12    13   ar
     3    13    14   ar
     4    14    15   ar
     5    15     1    1
     6     1     2   ar
     7     2     3   ar
     8     3     4   ar
     9     4     5   ar
    10     5     6   ar
    11     5     7    1
    12     7     8    1
    13     8     9    1
    14     9    10    1
    15    10    21    1
    16    21    22   ar
    17    22    23   ar
    18    23    24   ar
    19    24    25   ar
    20    25    26   ar
    21    15    16   ar
    22    16    17   ar
    23    17    18    1
    24    17    12   ar
    25     6     1   ar
    26    26    21   ar
    27    10     4    1
    28    11    19    1
    29    18    20    1
@<TRIPOS>MOLECULE
*****
 26 29 0 0 0
SMALL
GASTEIGER

@<TRIPOS>ATOM
      1 C          64.2104   89.7039   13.3881 C.ar    1  UNL1       -0.0002
      2 C          63.3935   90.1138   12.1987 C.ar    1  UNL1       -0.0003
      3 C          62.6216   89.0841   11.4282 C.ar    1  UNL1       -0.0043
      4 C          62.6665   87.6444   11.8470 C.ar    1  UNL1       -0.0224
      5 C          63.4834   87.2345   13.0363 C.ar    1  UNL1       -0.0258
      6 C          64.2553   88.2642   13.8069 C.ar    1  UNL1       -0.0046
      7 C          63.5284   85.7949   13.4552 C.3     1  UNL1        0.0261
      8 C          62.7565   84.7652   12.6846 C.3     1  UNL1        0.0053
      9 C          61.9395   85.1751   11.4952 C.3     1  UNL1        0.0091
     10 C          61.8946   86.6147   11.0764 C.3     1  UNL1        0.0444
     11 O          67.2981   93.8227   16.4705 O.3     1  UNL1       -0.5029
     12 C          66.5262   92.7930   15.6999 C.ar    1  UNL1        0.1675
     13 C          67.0589   92.2769   14.3961 C.ar    1  UNL1        0.0398
     14 C          66.2869   91.2472   13.6255 C.ar    1  UNL1        0.0033
     15 C          64.9823   90.7336   14.1587 C.ar    1  UNL1        0.0032
     16 C          64.4497   91.2497   15.4625 C.ar    1  UNL1        0.0398
     17 C          65.2216   92.2794   16.2331 C.ar    1  UNL1        0.1675
     18 O          64.6889   92.7955   17.5369 O.3     1  UNL1       -0.5029
     19 H          68.1130   94.1436   16.1374 H       1  UNL1        0.2923
     20 H          63.8740   92.4747   17.8700 H       1  UNL1        0.2923
     21 C          61.0777   87.0246    9.8870 C.ar    1  UNL1       -0.0154
     22 C          60.7944   86.0361    8.7950 C.ar    1  UNL1        0.0167
     23 C          59.9775   86.4460    7.6056 C.ar    1  UNL1        0.0986
     24 N          59.4439   87.8445    7.5082 N.ar    1  UNL1       -0.2423
     25 C          59.7272   88.8331    8.6002 C.ar    1  UNL1        0.0986
     26 C          60.5441   88.4232    9.7896 C.ar    1  UNL1        0.0167
@<TRIPOS>BOND
     1    11    12    1
     2    12    13   ar
     3    13    14   ar
     4    14    15   ar
     5    15     1    1
     6     1     2   ar
     7     2     3   ar
     8     3     4   ar
     9     4     5   ar
    10     5     6   ar
    11     5     7    1
    12     7     8    1
    13     8     9    1
    14     9    10    1
    15    10    21    1
    16    21    22   ar
    17    22    23   ar
    18    23    24   ar
    19    24    25   ar
    20    25    26   ar
    21    15    16   ar
    22    16    17   ar
    23    17    18    1
    24    17    12   ar
    25     6     1   ar
    26    26    21   ar
    27    10     4    1
    28    11    19    1
    29    18    20    1
@<TRIPOS>MOLECULE
*****
 26 29 0 0 0
SMALL
GASTEIGER

@<TRIPOS>ATOM
      1 C          63.7499   88.5668   13.5794 C.ar    1  UNL1       -0.0002
      2 C          63.9878   87.1613   14.0462 C.ar    1  UNL1       -0.0003
      3 C          63.5655   86.0048   13.1894 C.ar    1  UNL1       -0.0043
      4 C          62.9053   86.2539   11.8657 C.ar    1  UNL1       -0.0224
      5 C          62.6674   87.6593   11.3989 C.ar    1  UNL1       -0.0258
      6 C          63.0897   88.8158   12.2558 C.ar    1  UNL1       -0.0046
      7 C          62.0071   87.9084   10.0753 C.3     1  UNL1        0.0261
      8 C          61.5848   86.7519    9.2184 C.3     1  UNL1        0.0053
      9 C          61.8227   85.3463    9.6852 C.3     1  UNL1        0.0091
     10 C          62.4830   85.0973   11.0089 C.3     1  UNL1        0.0444
     11 O          65.4392   93.1929   17.0067 O.3     1  UNL1       -0.5029
     12 C          65.0169   92.0364   16.1499 C.ar    1  UNL1        0.1675
     13 C          63.8973   91.1427   16.5950 C.ar    1  UNL1        0.0398
     14 C          63.4750   89.9862   15.7381 C.ar    1  UNL1        0.0033
     15 C          64.1722   89.7233   14.4363 C.ar    1  UNL1        0.0032
     16 C          65.2918   90.6170   13.9912 C.ar    1  UNL1        0.0398
     17 C          65.7141   91.7734   14.8480 C.ar    1  UNL1        0.1675
     18 O          66.8336   92.6671   14.4030 O.3     1  UNL1       -0.5029
     19 H          65.0037   93.3571   17.8199 H       1  UNL1        0.2923
     20 H          67.2691   92.5029   13.5898 H       1  UNL1        0.2923
     21 C          62.7209   83.6918   11.4757 C.ar    1  UNL1       -0.0154
     22 C          62.4140   83.3104   12.8936 C.ar    1  UNL1        0.0167
     23 C          62.6520   81.9048   13.3604 C.ar    1  UNL1        0.0986
     24 N          63.1968   80.8808   12.4093 N.ar    1  UNL1       -0.2423
     25 C          63.5037   81.2622   10.9915 C.ar    1  UNL1        0.0986
     26 C          63.2657   82.6677   10.5246 C.ar    1  UNL1        0.0167
@<TRIPOS>BOND
     1    11    12    1
     2    12    13   ar
     3    13    14   ar
     4    14    15   ar
     5    15     1    1
     6     1     2   ar
     7     2     3   ar
     8     3     4   ar
     9     4     5   ar
    10     5     6   ar
    11     5     7    1
    12     7     8    1
    13     8     9    1
    14     9    10    1
    15    10    21    1
    16    21    22   ar
    17    22    23   ar
    18    23    24   ar
    19    24    25   ar
    20    25    26   ar
    21    15    16   ar
    22    16    17   ar
    23    17    18    1
    24    17    12   ar
    25     6     1   ar
    26    26    21   ar
    27    10     4    1
    28    11    19    1
    29    18    20    1
