@<TRIPOS>MOLECULE
*****
 22 24 0 0 0
SMALL
GASTEIGER

@<TRIPOS>ATOM
      1 N          64.1769   85.1072   13.9720 N.ar    1  UNL1       -0.3165
      2 C          64.8135   85.9374   15.0470 C.ar    1  UNL1        0.0779
      3 C          64.5370   87.3800   14.7433 C.ar    1  UNL1        0.0392
      4 C          63.7296   87.4416   13.4807 C.ar    1  UNL1        0.0985
      5 N          63.1682   88.5951   12.7035 N.ar    1  UNL1       -0.2423
      6 C          62.3843   88.3440   11.4496 C.ar    1  UNL1        0.0989
      7 C          62.1617   86.9393   10.9729 C.ar    1  UNL1        0.0206
      8 C          62.7231   85.7857   11.7501 C.ar    1  UNL1        0.0203
      9 C          63.5070   86.0368   13.0040 C.ar    1  UNL1        0.0782
     10 C          61.3777   86.6882    9.7189 C.ar    1  UNL1        0.0024
     11 C          60.0375   87.3348    9.5302 C.ar    1  UNL1        0.0001
     12 C          59.2535   87.0837    8.2762 C.ar    1  UNL1        0.0009
     13 C          59.8098   86.1861    7.2110 C.ar    1  UNL1        0.0114
     14 C          61.1502   85.5395    7.3997 C.ar    1  UNL1        0.0577
     15 CL         61.7066   84.6419    6.3345 Cl      1  UNL1       -0.0822
     16 C          61.9341   85.7906    8.6537 C.ar    1  UNL1        0.0114
     17 C          64.2052   83.6103   13.8809 C.3     1  UNL1        0.1920
     18 C          61.2220   80.9966   14.0200 C.3     1  UNL1        0.1150
     19 N          62.3786   81.8012   13.5054 N.am    1  UNL1       -0.2744
     20 C          62.8651   81.6016   12.1006 C.3     1  UNL1        0.1150
     21 C          63.0486   82.8055   14.3956 C.2     1  UNL1        0.2488
     22 O          62.5621   83.0051   15.8004 O.2     1  UNL1       -0.2728
@<TRIPOS>BOND
     1    18    19    1
     2    19    20    1
     3    19    21   am
     4    21    22    2
     5    21    17    1
     6    17     1    1
     7     1     2   ar
     8     2     3   ar
     9     3     4   ar
    10     4     5   ar
    11     5     6   ar
    12     6     7   ar
    13     7    10    1
    14    10    11   ar
    15    11    12   ar
    16    12    13   ar
    17    13    14   ar
    18    14    15    1
    19    14    16   ar
    20     7     8   ar
    21     8     9   ar
    22     9     1   ar
    23     9     4   ar
    24    16    10   ar
@<TRIPOS>MOLECULE
*****
 22 24 0 0 0
SMALL
GASTEIGER

@<TRIPOS>ATOM
      1 N          66.0581   93.2159   13.0496 N.ar    1  UNL1       -0.3165
      2 C          66.9107   93.2465   14.2833 C.ar    1  UNL1        0.0779
      3 C          66.6223   92.0068   15.0769 C.ar    1  UNL1        0.0392
      4 C          65.5913   91.2100   14.3338 C.ar    1  UNL1        0.0985
      5 N          64.9251   89.9006   14.6362 N.ar    1  UNL1       -0.2423
      6 C          63.9101   89.3384   13.6855 C.ar    1  UNL1        0.0989
      7 C          63.5614   90.0857   12.4325 C.ar    1  UNL1        0.0206
      8 C          64.2276   91.3951   12.1302 C.ar    1  UNL1        0.0203
      9 C          65.2426   91.9572   13.0808 C.ar    1  UNL1        0.0782
     10 C          62.5464   89.5234   11.4819 C.ar    1  UNL1        0.0024
     11 C          61.6557   90.4460   10.7037 C.ar    1  UNL1        0.0001
     12 C          60.6407   89.8838    9.7531 C.ar    1  UNL1        0.0009
     13 C          60.5164   88.3989    9.5806 C.ar    1  UNL1        0.0114
     14 C          61.4070   87.4763   10.3588 C.ar    1  UNL1        0.0577
     15 CL         61.2827   85.9914   10.1864 Cl      1  UNL1       -0.0822
     16 C          62.4220   88.0386   11.3094 C.ar    1  UNL1        0.0114
     17 C          66.0263   94.2604   11.9735 C.3     1  UNL1        0.1920
     18 C          67.4429   94.8342    8.3110 C.3     1  UNL1        0.1150
     19 N          66.6816   95.0473    9.5857 N.am    1  UNL1       -0.2744
     20 C          65.8140   96.2603    9.7473 C.3     1  UNL1        0.1150
     21 C          66.7878   94.0474   10.6987 C.2     1  UNL1        0.2488
     22 O          67.6553   92.8344   10.5371 O.2     1  UNL1       -0.2728
@<TRIPOS>BOND
     1    18    19    1
     2    19    20    1
     3    19    21   am
     4    21    22    2
     5    21    17    1
     6    17     1    1
     7     1     2   ar
     8     2     3   ar
     9     3     4   ar
    10     4     5   ar
    11     5     6   ar
    12     6     7   ar
    13     7    10    1
    14    10    11   ar
    15    11    12   ar
    16    12    13   ar
    17    13    14   ar
    18    14    15    1
    19    14    16   ar
    20     7     8   ar
    21     8     9   ar
    22     9     1   ar
    23     9     4   ar
    24    16    10   ar
@<TRIPOS>MOLECULE
*****
 22 24 0 0 0
SMALL
GASTEIGER

@<TRIPOS>ATOM
      1 N          63.8719   85.9228   15.6343 N.ar    1  UNL1       -0.3165
      2 C          63.2096   85.5167   16.9174 C.ar    1  UNL1        0.0779
      3 C          62.7886   86.7640   17.6366 C.ar    1  UNL1        0.0392
      4 C          63.1907   87.9408   16.7979 C.ar    1  UNL1        0.0985
      5 N          63.0337   89.4186   17.0013 N.ar    1  UNL1       -0.2423
      6 C          63.5463   90.3766   15.9671 C.ar    1  UNL1        0.0989
      7 C          64.2158   89.8567   14.7295 C.ar    1  UNL1        0.0206
      8 C          64.3728   88.3789   14.5262 C.ar    1  UNL1        0.0203
      9 C          63.8602   87.4209   15.5604 C.ar    1  UNL1        0.0782
     10 C          64.7283   90.8147   13.6953 C.ar    1  UNL1        0.0024
     11 C          65.9554   91.6316   13.9723 C.ar    1  UNL1        0.0001
     12 C          66.4680   92.5896   12.9381 C.ar    1  UNL1        0.0009
     13 C          65.7534   92.7307   11.6268 C.ar    1  UNL1        0.0114
     14 C          64.5262   91.9137   11.3498 C.ar    1  UNL1        0.0577
     15 CL         63.8115   92.0548   10.0386 Cl      1  UNL1       -0.0822
     16 C          64.0137   90.9558   12.3840 C.ar    1  UNL1        0.0114
     17 C          64.4452   84.9938   14.6055 C.3     1  UNL1        0.1920
     18 C          62.3427   82.1135   12.8640 C.3     1  UNL1        0.1150
     19 N          62.9868   83.4448   13.1143 N.am    1  UNL1       -0.2744
     20 C          62.8168   84.5583   12.1238 C.3     1  UNL1        0.1150
     21 C          63.8010   83.6625   14.3551 C.2     1  UNL1        0.2488
     22 O          63.9710   82.5489   15.3456 O.2     1  UNL1       -0.2728
@<TRIPOS>BOND
     1    18    19    1
     2    19    20    1
     3    19    21   am
     4    21    22    2
     5    21    17    1
     6    17     1    1
     7     1     2   ar
     8     2     3   ar
     9     3     4   ar
    10     4     5   ar
    11     5     6   ar
    12     6     7   ar
    13     7    10    1
    14    10    11   ar
    15    11    12   ar
    16    12    13   ar
    17    13    14   ar
    18    14    15    1
    19    14    16   ar
    20     7     8   ar
    21     8     9   ar
    22     9     1   ar
    23     9     4   ar
    24    16    10   ar
@<TRIPOS>MOLECULE
*****
 22 24 0 0 0
SMALL
GASTEIGER

@<TRIPOS>ATOM
      1 N          61.5847   86.3956    9.6329 N.ar    1  UNL1       -0.3165
      2 C          60.3422   86.3492    8.7939 C.ar    1  UNL1        0.0779
      3 C          59.7117   87.7100    8.8237 C.ar    1  UNL1        0.0392
      4 C          60.5646   88.5973    9.6812 C.ar    1  UNL1        0.0985
      5 N          60.4367   90.0400   10.0712 N.ar    1  UNL1       -0.2423
      6 C          61.4664   90.6704   10.9613 C.ar    1  UNL1        0.0989
      7 C          62.6240   89.8581   11.4614 C.ar    1  UNL1        0.0206
      8 C          62.7519   88.4153   11.0714 C.ar    1  UNL1        0.0203
      9 C          61.7222   87.7850   10.1813 C.ar    1  UNL1        0.0782
     10 C          63.6537   90.4885   12.3516 C.ar    1  UNL1        0.0024
     11 C          63.9725   89.8737   13.6821 C.ar    1  UNL1        0.0001
     12 C          65.0022   90.5041   14.5722 C.ar    1  UNL1        0.0009
     13 C          65.7131   91.7494   14.1318 C.ar    1  UNL1        0.0114
     14 C          65.3942   92.3642   12.8012 C.ar    1  UNL1        0.0577
     15 CL         66.1050   93.6095   12.3607 Cl      1  UNL1       -0.0822
     16 C          64.3645   91.7338   11.9111 C.ar    1  UNL1        0.0114
     17 C          62.5248   85.2531    9.8801 C.3     1  UNL1        0.1920
     18 C          63.7543   82.9805   12.8924 C.3     1  UNL1        0.1150
     19 N          63.5800   83.5213   11.5042 N.am    1  UNL1       -0.2744
     20 C          64.2864   82.8710   10.3517 C.3     1  UNL1        0.1150
     21 C          62.6991   84.7123   11.2684 C.2     1  UNL1        0.2488
     22 O          61.9927   85.3626   12.4208 O.2     1  UNL1       -0.2728
@<TRIPOS>BOND
     1    18    19    1
     2    19    20    1
     3    19    21   am
     4    21    22    2
     5    21    17    1
     6    17     1    1
     7     1     2   ar
     8     2     3   ar
     9     3     4   ar
    10     4     5   ar
    11     5     6   ar
    12     6     7   ar
    13     7    10    1
    14    10    11   ar
    15    11    12   ar
    16    12    13   ar
    17    13    14   ar
    18    14    15    1
    19    14    16   ar
    20     7     8   ar
    21     8     9   ar
    22     9     1   ar
    23     9     4   ar
    24    16    10   ar
@<TRIPOS>MOLECULE
*****
 22 24 0 0 0
SMALL
GASTEIGER

@<TRIPOS>ATOM
      1 N          63.8281   84.4490   14.5588 N.ar    1  UNL1       -0.3165
      2 C          64.3244   85.2883   15.6986 C.ar    1  UNL1        0.0779
      3 C          64.2545   86.7269   15.2797 C.ar    1  UNL1        0.0392
      4 C          63.7150   86.7767   13.8809 C.ar    1  UNL1        0.0985
      5 N          63.4297   87.9221   12.9554 N.ar    1  UNL1       -0.2423
      6 C          62.8809   87.6596   11.5843 C.ar    1  UNL1        0.0989
      7 C          62.6173   86.2517   11.1388 C.ar    1  UNL1        0.0206
      8 C          62.9026   85.1064   12.0643 C.ar    1  UNL1        0.0203
      9 C          63.4515   85.3688   13.4354 C.ar    1  UNL1        0.0782
     10 C          62.0685   85.9893    9.7677 C.ar    1  UNL1        0.0024
     11 C          62.8911   85.2410    8.7611 C.ar    1  UNL1        0.0001
     12 C          62.3422   84.9786    7.3899 C.ar    1  UNL1        0.0009
     13 C          60.9707   85.4645    7.0255 C.ar    1  UNL1        0.0114
     14 C          60.1481   86.2129    8.0322 C.ar    1  UNL1        0.0577
     15 CL         58.7766   86.6988    7.6677 Cl      1  UNL1       -0.0822
     16 C          60.6970   86.4753    9.4032 C.ar    1  UNL1        0.0114
     17 C          63.7262   82.9525   14.5448 C.3     1  UNL1        0.1920
     18 C          62.7707   80.4897   11.5831 C.3     1  UNL1        0.1150
     19 N          62.7076   81.2335   12.8841 N.am    1  UNL1       -0.2744
     20 C          61.5630   81.0022   13.8256 C.3     1  UNL1        0.1150
     21 C          63.7893   82.2086   13.2437 C.2     1  UNL1        0.2488
     22 O          64.9339   82.4398   12.3022 O.2     1  UNL1       -0.2728
@<TRIPOS>BOND
     1    18    19    1
     2    19    20    1
     3    19    21   am
     4    21    22    2
     5    21    17    1
     6    17     1    1
     7     1     2   ar
     8     2     3   ar
     9     3     4   ar
    10     4     5   ar
    11     5     6   ar
    12     6     7   ar
    13     7    10    1
    14    10    11   ar
    15    11    12   ar
    16    12    13   ar
    17    13    14   ar
    18    14    15    1
    19    14    16   ar
    20     7     8   ar
    21     8     9   ar
    22     9     1   ar
    23     9     4   ar
    24    16    10   ar
@<TRIPOS>MOLECULE
*****
 22 24 0 0 0
SMALL
GASTEIGER

@<TRIPOS>ATOM
      1 N          61.9064   89.8942   11.7083 N.ar    1  UNL1       -0.3165
      2 C          60.9113   90.7809   11.0202 C.ar    1  UNL1        0.0779
      3 C          60.1461   89.9441   10.0382 C.ar    1  UNL1        0.0392
      4 C          60.6684   88.5403   10.1194 C.ar    1  UNL1        0.0985
      5 N          60.2938   87.2861    9.3868 N.ar    1  UNL1       -0.2423
      6 C          61.0073   86.0011    9.6864 C.ar    1  UNL1        0.0989
      7 C          62.0952   85.9703   10.7186 C.ar    1  UNL1        0.0206
      8 C          62.4698   87.2245   11.4512 C.ar    1  UNL1        0.0203
      9 C          61.7563   88.5095   11.1516 C.ar    1  UNL1        0.0782
     10 C          62.8087   84.6852   11.0182 C.ar    1  UNL1        0.0024
     11 C          63.5522   83.9689    9.9301 C.ar    1  UNL1        0.0001
     12 C          64.2657   82.6838   10.2297 C.ar    1  UNL1        0.0009
     13 C          64.2355   82.1152   11.6174 C.ar    1  UNL1        0.0114
     14 C          63.4918   82.8316   12.7055 C.ar    1  UNL1        0.0577
     15 CL         63.4617   82.2629   14.0932 Cl      1  UNL1       -0.0822
     16 C          62.7785   84.1166   12.4059 C.ar    1  UNL1        0.0114
     17 C          62.8807   90.3180   12.7672 C.3     1  UNL1        0.1920
     18 C          66.1932   92.4774   13.1048 C.3     1  UNL1        0.1150
     19 N          65.0291   91.6023   13.4637 N.am    1  UNL1       -0.2744
     20 C          64.8492   91.1362   14.8781 C.3     1  UNL1        0.1150
     21 C          64.0449   91.1932   12.4083 C.2     1  UNL1        0.2488
     22 O          64.2249   91.6592   10.9939 O.2     1  UNL1       -0.2728
@<TRIPOS>BOND
     1    18    19    1
     2    19    20    1
     3    19    21   am
     4    21    22    2
     5    21    17    1
     6    17     1    1
     7     1     2   ar
     8     2     3   ar
     9     3     4   ar
    10     4     5   ar
    11     5     6   ar
    12     6     7   ar
    13     7    10    1
    14    10    11   ar
    15    11    12   ar
    16    12    13   ar
    17    13    14   ar
    18    14    15    1
    19    14    16   ar
    20     7     8   ar
    21     8     9   ar
    22     9     1   ar
    23     9     4   ar
    24    16    10   ar
@<TRIPOS>MOLECULE
*****
 22 24 0 0 0
SMALL
GASTEIGER

@<TRIPOS>ATOM
      1 N          62.9968   82.9135   12.6298 N.ar    1  UNL1       -0.3165
      2 C          63.5866   81.7254   11.9294 C.ar    1  UNL1        0.0779
      3 C          63.7831   82.0879   10.4872 C.ar    1  UNL1        0.0392
      4 C          63.3148   83.5001   10.2962 C.ar    1  UNL1        0.0985
      5 N          63.2680   84.3872    9.0877 N.ar    1  UNL1       -0.2423
      6 C          62.7353   85.7846    9.2033 C.ar    1  UNL1        0.0989
      7 C          62.2493   86.2949   10.5275 C.ar    1  UNL1        0.0206
      8 C          62.2960   85.4077   11.7360 C.ar    1  UNL1        0.0203
      9 C          62.8288   84.0103   11.6204 C.ar    1  UNL1        0.0782
     10 C          61.7165   87.6924   10.6430 C.ar    1  UNL1        0.0024
     11 C          60.2919   87.9204   11.0532 C.ar    1  UNL1        0.0001
     12 C          59.7591   89.3179   11.1688 C.ar    1  UNL1        0.0009
     13 C          60.6511   90.4873   10.8741 C.ar    1  UNL1        0.0114
     14 C          62.0758   90.2592   10.4639 C.ar    1  UNL1        0.0577
     15 CL         62.9678   91.4286   10.1693 Cl      1  UNL1       -0.0822
     16 C          62.6085   88.8618   10.3484 C.ar    1  UNL1        0.0114
     17 C          62.6380   82.9912   14.0842 C.3     1  UNL1        0.1920
     18 C          64.1097   86.3249   15.6559 C.3     1  UNL1        0.1150
     19 N          64.0316   85.0129   14.9332 N.am    1  UNL1       -0.2744
     20 C          65.2690   84.4103   14.3369 C.3     1  UNL1        0.1150
     21 C          62.7161   84.3034   14.8069 C.2     1  UNL1        0.2488
     22 O          61.4786   84.9059   15.4032 O.2     1  UNL1       -0.2728
@<TRIPOS>BOND
     1    18    19    1
     2    19    20    1
     3    19    21   am
     4    21    22    2
     5    21    17    1
     6    17     1    1
     7     1     2   ar
     8     2     3   ar
     9     3     4   ar
    10     4     5   ar
    11     5     6   ar
    12     6     7   ar
    13     7    10    1
    14    10    11   ar
    15    11    12   ar
    16    12    13   ar
    17    13    14   ar
    18    14    15    1
    19    14    16   ar
    20     7     8   ar
    21     8     9   ar
    22     9     1   ar
    23     9     4   ar
    24    16    10   ar
@<TRIPOS>MOLECULE
*****
 22 24 0 0 0
SMALL
GASTEIGER

@<TRIPOS>ATOM
      1 N          62.1297   88.2335   10.9360 N.ar    1  UNL1       -0.3165
      2 C          62.6424   89.5445   11.4541 C.ar    1  UNL1        0.0779
      3 C          63.4431   89.2722   12.6929 C.ar    1  UNL1        0.0392
      4 C          63.4252   87.7928   12.9405 C.ar    1  UNL1        0.0985
      5 N          64.0432   86.9474   14.0144 N.ar    1  UNL1       -0.2423
      6 C          63.8494   85.4601   14.0025 C.ar    1  UNL1        0.0989
      7 C          63.0377   84.8181   12.9167 C.ar    1  UNL1        0.0206
      8 C          62.4197   85.6636   11.8428 C.ar    1  UNL1        0.0203
      9 C          62.6134   87.1509   11.8547 C.ar    1  UNL1        0.0782
     10 C          62.8440   83.3307   12.9048 C.ar    1  UNL1        0.0024
     11 C          62.4693   82.6130   14.1675 C.ar    1  UNL1        0.0001
     12 C          62.2756   81.1256   14.1556 C.ar    1  UNL1        0.0009
     13 C          62.4565   80.3559   12.8809 C.ar    1  UNL1        0.0114
     14 C          62.8312   81.0736   11.6181 C.ar    1  UNL1        0.0577
     15 CL         63.0121   80.3039   10.3435 Cl      1  UNL1       -0.0822
     16 C          63.0249   82.5610   11.6301 C.ar    1  UNL1        0.0114
     17 C          61.2820   88.0392    9.7139 C.3     1  UNL1        0.1920
     18 C          60.7141   85.1730    7.0283 C.3     1  UNL1        0.1150
     19 N          60.4433   86.3219    7.9538 N.am    1  UNL1       -0.2744
     20 C          59.0632   86.9025    8.0449 C.3     1  UNL1        0.1150
     21 C          61.5527   86.8902    8.7883 C.2     1  UNL1        0.2488
     22 O          62.9327   86.3096    8.6972 O.2     1  UNL1       -0.2728
@<TRIPOS>BOND
     1    18    19    1
     2    19    20    1
     3    19    21   am
     4    21    22    2
     5    21    17    1
     6    17     1    1
     7     1     2   ar
     8     2     3   ar
     9     3     4   ar
    10     4     5   ar
    11     5     6   ar
    12     6     7   ar
    13     7    10    1
    14    10    11   ar
    15    11    12   ar
    16    12    13   ar
    17    13    14   ar
    18    14    15    1
    19    14    16   ar
    20     7     8   ar
    21     8     9   ar
    22     9     1   ar
    23     9     4   ar
    24    16    10   ar
@<TRIPOS>MOLECULE
*****
 22 24 0 0 0
SMALL
GASTEIGER

@<TRIPOS>ATOM
      1 N          62.0370   86.3230   11.3199 N.ar    1  UNL1       -0.3165
      2 C          61.0248   86.0342   10.2512 C.ar    1  UNL1        0.0779
      3 C          60.7024   87.3244    9.5574 C.ar    1  UNL1        0.0392
      4 C          61.5153   88.4106   10.1972 C.ar    1  UNL1        0.0985
      5 N          61.6110   89.8832    9.9286 N.ar    1  UNL1       -0.2423
      6 C          62.5316   90.7369   10.7494 C.ar    1  UNL1        0.0989
      7 C          63.3564   90.1180   11.8387 C.ar    1  UNL1        0.0206
      8 C          63.2607   88.6454   12.1073 C.ar    1  UNL1        0.0203
      9 C          62.3402   87.7917   11.2865 C.ar    1  UNL1        0.0782
     10 C          64.2770   90.9719   12.6595 C.ar    1  UNL1        0.0024
     11 C          64.6019   90.5822   14.0711 C.ar    1  UNL1        0.0001
     12 C          65.5225   91.4360   14.8919 C.ar    1  UNL1        0.0009
     13 C          66.1181   92.6795   14.3010 C.ar    1  UNL1        0.0114
     14 C          65.7931   93.0691   12.8893 C.ar    1  UNL1        0.0577
     15 CL         66.3888   94.3125   12.2985 Cl      1  UNL1       -0.0822
     16 C          64.8726   92.2153   12.0686 C.ar    1  UNL1        0.0114
     17 C          62.6402   85.3194   12.2574 C.3     1  UNL1        0.1920
     18 C          63.1827   81.3886   12.1864 C.3     1  UNL1        0.1150
     19 N          62.8401   82.7634   12.6788 N.am    1  UNL1       -0.2744
     20 C          62.3548   82.9573   14.0848 C.3     1  UNL1        0.1150
     21 C          62.9828   83.9444   11.7650 C.2     1  UNL1        0.2488
     22 O          63.4680   83.7505   10.3590 O.2     1  UNL1       -0.2728
@<TRIPOS>BOND
     1    18    19    1
     2    19    20    1
     3    19    21   am
     4    21    22    2
     5    21    17    1
     6    17     1    1
     7     1     2   ar
     8     2     3   ar
     9     3     4   ar
    10     4     5   ar
    11     5     6   ar
    12     6     7   ar
    13     7    10    1
    14    10    11   ar
    15    11    12   ar
    16    12    13   ar
    17    13    14   ar
    18    14    15    1
    19    14    16   ar
    20     7     8   ar
    21     8     9   ar
    22     9     1   ar
    23     9     4   ar
    24    16    10   ar
