@<TRIPOS>MOLECULE
*****
 43 47 0 0 0
SMALL
GASTEIGER

@<TRIPOS>ATOM
      1 C          62.8359   86.6815   11.6764 C.3     1  UNL1        0.1696
      2 C          62.9500   85.6115   12.7214 C.3     1  UNL1        0.1274
      3 N          63.0773   85.7661   14.2080 N.am    1  UNL1       -0.2518
      4 C          63.1725   84.4891   14.9893 C.2     1  UNL1        0.2528
      5 O          63.3028   84.5316   16.4830 O.2     1  UNL1       -0.2696
      6 C          63.1218   87.0286   15.0167 C.ar    1  UNL1        0.0678
      7 C          63.2565   86.7365   16.4818 C.ar    1  UNL1        0.0162
      8 C          63.3196   87.8644   17.4687 C.ar    1  UNL1        0.0014
      9 C          63.2479   89.2843   16.9905 C.ar    1  UNL1        0.0014
     10 C          63.1132   89.5764   15.5254 C.ar    1  UNL1        0.0162
     11 C          63.0502   88.4485   14.5385 C.ar    1  UNL1        0.0679
     12 N          62.9162   88.9565   13.1335 N.am    1  UNL1       -0.2517
     13 C          62.8209   88.1702   11.8597 C.2     1  UNL1        0.2493
     14 O          62.6937   88.9795   10.6032 O.2     1  UNL1       -0.2727
     15 C          63.1376   83.1696   14.2767 C.ar    1  UNL1        0.0539
     16 C          64.2609   82.7814   13.3617 C.ar    1  UNL1        0.0045
     17 C          64.2260   81.4619   12.6492 C.ar    1  UNL1        0.0001
     18 C          63.0677   80.5306   12.8518 C.ar    1  UNL1        0.0000
     19 C          61.9444   80.9187   13.7668 C.ar    1  UNL1        0.0001
     20 C          61.9793   82.2382   14.4794 C.ar    1  UNL1        0.0045
     21 C          61.3898   86.2062    9.5710 C.2     1  UNL1        0.2371
     22 O          60.1719   86.6960   10.2969 O.2     1  UNL1       -0.2737
     23 N          62.7217   86.1990   10.2607 N.am    1  UNL1       -0.2959
     24 H          63.5211   85.8775    9.7842 H       1  UNL1        0.1499
     25 C          61.2756   85.7237    8.1553 C.3     1  UNL1        0.1316
     26 C          62.4860   85.1973    7.4424 C.3     1  UNL1        0.0270
     27 C          59.1360   87.0266    7.4664 C.3     1  UNL1        0.0862
     28 N          59.9512   85.7675    7.4525 N.3     1  UNL1       -0.2902
     29 H          60.1298   85.5432    6.4736 H       1  UNL1        0.1237
     30 C          62.8717   90.4483   12.9823 C.3     1  UNL1        0.1278
     31 C          64.0253   91.1733   12.3549 C.ar    1  UNL1        0.0320
     32 C          63.9708   91.5576   10.9060 C.ar    1  UNL1        0.1363
     33 C          65.1243   92.2827   10.2785 C.ar    1  UNL1        0.0366
     34 C          66.3323   92.6234   11.0999 C.ar    1  UNL1        0.0031
     35 C          66.3868   92.2390   12.5488 C.ar    1  UNL1        0.0004
     36 C          67.5948   92.5797   13.3702 C.ar    1  UNL1        0.0067
     37 C          67.6492   92.1954   14.8191 C.ar    1  UNL1        0.0346
     38 BR         68.8572   92.5361   15.6405 Br      1  UNL1       -0.0490
     39 C          66.4957   91.4703   15.4466 C.ar    1  UNL1        0.0067
     40 C          65.2877   91.1297   14.6252 C.ar    1  UNL1        0.0003
     41 C          65.2333   91.5140   13.1764 C.ar    1  UNL1        0.0006
     42 O          62.7629   91.2169   10.0845 O.3     1  UNL1       -0.4717
     43 C          61.2984   91.0956   10.3854 C.3     1  UNL1        0.2525
@<TRIPOS>BOND
     1    27    28    1
     2    28    25    1
     3    25    26    1
     4    25    21    1
     5    21    22    2
     6    21    23   am
     7     1    23    1
     8     1     2    1
     9     2     3    1
    10     3     4   am
    11     4     5    2
    12     4    15    1
    13    15    16   ar
    14    16    17   ar
    15    17    18   ar
    16    18    19   ar
    17    19    20   ar
    18     3     6    1
    19     6     7   ar
    20     7     8   ar
    21     8     9   ar
    22     9    10   ar
    23    10    11   ar
    24    11    12    1
    25    12    30    1
    26    30    31    1
    27    31    32   ar
    28    32    42    1
    29    42    43    1
    30    32    33   ar
    31    33    34   ar
    32    34    35   ar
    33    35    36   ar
    34    36    37   ar
    35    37    38    1
    36    37    39   ar
    37    39    40   ar
    38    40    41   ar
    39    12    13   am
    40    13    14    2
    41    13     1    1
    42    20    15   ar
    43    11     6   ar
    44    41    31   ar
    45    41    35   ar
    46    28    29    1
    47    23    24    1
@<TRIPOS>MOLECULE
*****
 43 47 0 0 0
SMALL
GASTEIGER

@<TRIPOS>ATOM
      1 C          61.7911   86.1122   10.9228 C.3     1  UNL1        0.1696
      2 C          62.5110   84.9343   11.5095 C.3     1  UNL1        0.1274
      3 N          63.4302   84.8953   12.6942 N.am    1  UNL1       -0.2518
      4 C          63.9982   83.5490   13.0332 C.2     1  UNL1        0.2528
      5 O          64.9290   83.3998   14.2000 O.2     1  UNL1       -0.2696
      6 C          63.8566   86.0245   13.5848 C.ar    1  UNL1        0.0678
      7 C          64.7903   85.5523   14.6596 C.ar    1  UNL1        0.0162
      8 C          65.3364   86.5272   15.6601 C.ar    1  UNL1        0.0014
      9 C          64.9488   87.9744   15.5860 C.ar    1  UNL1        0.0014
     10 C          64.0151   88.4466   14.5112 C.ar    1  UNL1        0.0162
     11 C          63.4690   87.4716   13.5106 C.ar    1  UNL1        0.0679
     12 N          62.5593   88.1470   12.5275 N.am    1  UNL1       -0.2517
     13 C          61.8125   87.5420   11.3758 C.2     1  UNL1        0.2493
     14 O          60.9768   88.4925   10.5708 O.2     1  UNL1       -0.2727
     15 C          63.6355   82.3519   12.2052 C.ar    1  UNL1        0.0539
     16 C          62.9499   81.1796   12.8419 C.ar    1  UNL1        0.0045
     17 C          62.5872   79.9825   12.0141 C.ar    1  UNL1        0.0001
     18 C          62.9102   79.9577   10.5494 C.ar    1  UNL1        0.0000
     19 C          63.5959   81.1300    9.9128 C.ar    1  UNL1        0.0001
     20 C          63.9586   82.3271   10.7406 C.ar    1  UNL1        0.0045
     21 C          61.5719   85.6285    8.3796 C.2     1  UNL1        0.2371
     22 O          63.0616   85.7254    8.2328 O.2     1  UNL1       -0.2737
     23 N          60.9367   85.8220    9.7246 N.am    1  UNL1       -0.2959
     24 H          59.9589   85.7584    9.8209 H       1  UNL1        0.1499
     25 C          60.7175   85.3383    7.1814 C.3     1  UNL1        0.1316
     26 C          61.2626   84.5128    6.0537 C.3     1  UNL1        0.0270
     27 C          59.0350   87.2891    7.5179 C.3     1  UNL1        0.0862
     28 N          59.3180   85.8735    7.1107 N.3     1  UNL1       -0.2902
     29 H          59.0156   85.7799    6.1411 H       1  UNL1        0.1237
     30 C          62.3715   89.6224   12.7219 C.3     1  UNL1        0.1278
     31 C          63.3220   90.5903   12.0815 C.ar    1  UNL1        0.0320
     32 C          63.2295   90.8703   10.6108 C.ar    1  UNL1        0.1363
     33 C          64.1799   91.8381    9.9704 C.ar    1  UNL1        0.0366
     34 C          65.2228   92.5259   10.8007 C.ar    1  UNL1        0.0031
     35 C          65.3152   92.2458   12.2715 C.ar    1  UNL1        0.0004
     36 C          66.3581   92.9335   13.1018 C.ar    1  UNL1        0.0067
     37 C          66.4505   92.6534   14.5725 C.ar    1  UNL1        0.0346
     38 BR         67.4934   93.3412   15.4029 Br      1  UNL1       -0.0490
     39 C          65.5001   91.6856   15.2129 C.ar    1  UNL1        0.0067
     40 C          64.4573   90.9979   14.3825 C.ar    1  UNL1        0.0003
     41 C          64.3648   91.2780   12.9119 C.ar    1  UNL1        0.0006
     42 O          62.1866   90.1826    9.7804 O.3     1  UNL1       -0.4717
     43 C          60.7494   90.4719    9.4634 C.3     1  UNL1        0.2525
@<TRIPOS>BOND
     1    27    28    1
     2    28    25    1
     3    25    26    1
     4    25    21    1
     5    21    22    2
     6    21    23   am
     7     1    23    1
     8     1     2    1
     9     2     3    1
    10     3     4   am
    11     4     5    2
    12     4    15    1
    13    15    16   ar
    14    16    17   ar
    15    17    18   ar
    16    18    19   ar
    17    19    20   ar
    18     3     6    1
    19     6     7   ar
    20     7     8   ar
    21     8     9   ar
    22     9    10   ar
    23    10    11   ar
    24    11    12    1
    25    12    30    1
    26    30    31    1
    27    31    32   ar
    28    32    42    1
    29    42    43    1
    30    32    33   ar
    31    33    34   ar
    32    34    35   ar
    33    35    36   ar
    34    36    37   ar
    35    37    38    1
    36    37    39   ar
    37    39    40   ar
    38    40    41   ar
    39    12    13   am
    40    13    14    2
    41    13     1    1
    42    20    15   ar
    43    11     6   ar
    44    41    31   ar
    45    41    35   ar
    46    28    29    1
    47    23    24    1
@<TRIPOS>MOLECULE
*****
 43 47 0 0 0
SMALL
GASTEIGER

@<TRIPOS>ATOM
      1 C          61.5458   89.0902    9.5540 C.3     1  UNL1        0.1696
      2 C          61.8680   87.6498    9.2869 C.3     1  UNL1        0.1274
      3 N          62.4710   86.6385   10.2162 N.am    1  UNL1       -0.2518
      4 C          62.6708   85.2664    9.6440 C.2     1  UNL1        0.2528
      5 O          63.2670   84.1804   10.4897 O.2     1  UNL1       -0.2696
      6 C          62.9007   86.8177   11.6422 C.ar    1  UNL1        0.0678
      7 C          63.4567   85.5460   12.2110 C.ar    1  UNL1        0.0162
      8 C          63.9454   85.5093   13.6287 C.ar    1  UNL1        0.0014
      9 C          63.8782   86.7442   14.4775 C.ar    1  UNL1        0.0014
     10 C          63.3222   88.0159   13.9086 C.ar    1  UNL1        0.0162
     11 C          62.8335   88.0527   12.4910 C.ar    1  UNL1        0.0679
     12 N          62.3200   89.4133   12.1234 N.am    1  UNL1       -0.2517
     13 C          61.7469   89.8751   10.8164 C.2     1  UNL1        0.2493
     14 O          61.3183   91.3116   10.7649 O.2     1  UNL1       -0.2727
     15 C          62.2744   84.9802    8.2258 C.ar    1  UNL1        0.0539
     16 C          60.8378   85.0970    7.8106 C.ar    1  UNL1        0.0045
     17 C          60.4413   84.8109    6.3925 C.ar    1  UNL1        0.0001
     18 C          61.4815   84.4079    5.3897 C.ar    1  UNL1        0.0000
     19 C          62.9181   84.2911    5.8050 C.ar    1  UNL1        0.0001
     20 C          63.3146   84.5772    7.2230 C.ar    1  UNL1        0.0045
     21 C          59.8376   89.2294    7.6014 C.2     1  UNL1        0.2371
     22 O          59.3358   87.8576    7.9426 O.2     1  UNL1       -0.2737
     23 N          60.9426   89.8457    8.4071 N.am    1  UNL1       -0.2959
     24 H          61.2720   90.7460    8.1832 H       1  UNL1        0.1499
     25 C          59.2345   89.9849    6.4545 C.3     1  UNL1        0.1316
     26 C          60.1217   90.6851    5.4682 C.3     1  UNL1        0.0270
     27 C          57.1349   90.9275    5.2490 C.3     1  UNL1        0.0862
     28 N          57.7442   90.0402    6.2937 N.3     1  UNL1       -0.2902
     29 H          57.4346   89.0899    6.0899 H       1  UNL1        0.1237
     30 C          62.3887   90.4491   13.2062 C.3     1  UNL1        0.1278
     31 C          63.7191   90.9731   13.6597 C.ar    1  UNL1        0.0320
     32 C          64.0926   90.9152   15.1112 C.ar    1  UNL1        0.1363
     33 C          65.4229   91.4391   15.5648 C.ar    1  UNL1        0.0366
     34 C          66.3798   92.0209   14.5668 C.ar    1  UNL1        0.0031
     35 C          66.0062   92.0787   13.1152 C.ar    1  UNL1        0.0004
     36 C          66.9630   92.6605   12.1171 C.ar    1  UNL1        0.0067
     37 C          66.5894   92.7183   10.6656 C.ar    1  UNL1        0.0346
     38 BR         67.5462   93.3001    9.6675 Br      1  UNL1       -0.0490
     39 C          65.2591   92.1944   10.2120 C.ar    1  UNL1        0.0067
     40 C          64.3023   91.6127   11.2101 C.ar    1  UNL1        0.0003
     41 C          64.6758   91.5548   12.6616 C.ar    1  UNL1        0.0006
     42 O          63.1358   90.3335   16.1093 O.3     1  UNL1       -0.4717
     43 C          63.1609   89.1219   16.9934 C.3     1  UNL1        0.2525
@<TRIPOS>BOND
     1    27    28    1
     2    28    25    1
     3    25    26    1
     4    25    21    1
     5    21    22    2
     6    21    23   am
     7     1    23    1
     8     1     2    1
     9     2     3    1
    10     3     4   am
    11     4     5    2
    12     4    15    1
    13    15    16   ar
    14    16    17   ar
    15    17    18   ar
    16    18    19   ar
    17    19    20   ar
    18     3     6    1
    19     6     7   ar
    20     7     8   ar
    21     8     9   ar
    22     9    10   ar
    23    10    11   ar
    24    11    12    1
    25    12    30    1
    26    30    31    1
    27    31    32   ar
    28    32    42    1
    29    42    43    1
    30    32    33   ar
    31    33    34   ar
    32    34    35   ar
    33    35    36   ar
    34    36    37   ar
    35    37    38    1
    36    37    39   ar
    37    39    40   ar
    38    40    41   ar
    39    12    13   am
    40    13    14    2
    41    13     1    1
    42    20    15   ar
    43    11     6   ar
    44    41    31   ar
    45    41    35   ar
    46    28    29    1
    47    23    24    1
@<TRIPOS>MOLECULE
*****
 43 47 0 0 0
SMALL
GASTEIGER

@<TRIPOS>ATOM
      1 C          58.7725   96.0456   -2.4065 C.3     1  UNL1        0.1696
      2 C          58.7678   95.5051   -3.8058 C.3     1  UNL1        0.1274
      3 N          59.9297   95.0395   -4.6323 N.am    1  UNL1       -0.2518
      4 C          59.5936   94.5492   -6.0095 C.2     1  UNL1        0.2528
      5 O          60.6825   94.0610   -6.9184 O.2     1  UNL1       -0.2696
      6 C          61.3832   94.9994   -4.2639 C.ar    1  UNL1        0.0678
      7 C          62.2185   94.4601   -5.3870 C.ar    1  UNL1        0.0162
      8 C          63.7045   94.3364   -5.2240 C.ar    1  UNL1        0.0014
      9 C          64.3551   94.7520   -3.9379 C.ar    1  UNL1        0.0014
     10 C          63.5197   95.2912   -2.8148 C.ar    1  UNL1        0.0162
     11 C          62.0338   95.4149   -2.9778 C.ar    1  UNL1        0.0679
     12 N          61.3915   95.9732   -1.7426 N.am    1  UNL1       -0.2517
     13 C          59.9402   96.2539   -1.4882 C.2     1  UNL1        0.2493
     14 O          59.6132   96.8175   -0.1372 O.2     1  UNL1       -0.2727
     15 C          58.1686   94.5471   -6.4780 C.ar    1  UNL1        0.0539
     16 C          57.5743   95.7871   -7.0772 C.ar    1  UNL1        0.0045
     17 C          56.1494   95.7851   -7.5456 C.ar    1  UNL1        0.0001
     18 C          55.3187   94.5430   -7.4148 C.ar    1  UNL1        0.0000
     19 C          55.9130   93.3030   -6.8156 C.ar    1  UNL1        0.0001
     20 C          57.3379   93.3050   -6.3472 C.ar    1  UNL1        0.0045
     21 C          56.2127   95.6395   -2.2267 C.2     1  UNL1        0.2371
     22 O          56.3333   94.4679   -3.1556 O.2     1  UNL1       -0.2737
     23 N          57.4323   96.4283   -1.8522 N.am    1  UNL1       -0.2959
     24 H          57.3531   97.1973   -1.2425 H       1  UNL1        0.1499
     25 C          54.8724   96.0223   -1.6724 C.3     1  UNL1        0.1316
     26 C          54.7856   96.8485   -0.4234 C.3     1  UNL1        0.0270
     27 C          53.0200   96.4287   -3.4481 C.3     1  UNL1        0.0862
     28 N          53.6191   95.5789   -2.3670 N.3     1  UNL1       -0.2902
     29 H          53.8194   94.6698   -2.7840 H       1  UNL1        0.1237
     30 C          62.3241   96.2932   -0.6121 C.3     1  UNL1        0.1278
     31 C          62.9261   95.1851    0.2003 C.ar    1  UNL1        0.0320
     32 C          64.3883   94.8743    0.0774 C.ar    1  UNL1        0.1363
     33 C          64.9904   93.7662    0.8897 C.ar    1  UNL1        0.0366
     34 C          64.1301   92.9690    1.8248 C.ar    1  UNL1        0.0031
     35 C          62.6677   93.2799    1.9476 C.ar    1  UNL1        0.0004
     36 C          61.8074   92.4827    2.8827 C.ar    1  UNL1        0.0067
     37 C          60.3452   92.7936    3.0054 C.ar    1  UNL1        0.0346
     38 BR         59.4849   91.9964    3.9405 Br      1  UNL1       -0.0490
     39 C          59.7431   93.9017    2.1932 C.ar    1  UNL1        0.0067
     40 C          60.6035   94.6988    1.2581 C.ar    1  UNL1        0.0003
     41 C          62.0657   94.3879    1.1353 C.ar    1  UNL1        0.0006
     42 O          65.2487   95.6714   -0.8576 O.3     1  UNL1       -0.4717
     43 C          66.1664   96.8451   -0.6843 C.3     1  UNL1        0.2525
@<TRIPOS>BOND
     1    27    28    1
     2    28    25    1
     3    25    26    1
     4    25    21    1
     5    21    22    2
     6    21    23   am
     7     1    23    1
     8     1     2    1
     9     2     3    1
    10     3     4   am
    11     4     5    2
    12     4    15    1
    13    15    16   ar
    14    16    17   ar
    15    17    18   ar
    16    18    19   ar
    17    19    20   ar
    18     3     6    1
    19     6     7   ar
    20     7     8   ar
    21     8     9   ar
    22     9    10   ar
    23    10    11   ar
    24    11    12    1
    25    12    30    1
    26    30    31    1
    27    31    32   ar
    28    32    42    1
    29    42    43    1
    30    32    33   ar
    31    33    34   ar
    32    34    35   ar
    33    35    36   ar
    34    36    37   ar
    35    37    38    1
    36    37    39   ar
    37    39    40   ar
    38    40    41   ar
    39    12    13   am
    40    13    14    2
    41    13     1    1
    42    20    15   ar
    43    11     6   ar
    44    41    31   ar
    45    41    35   ar
    46    28    29    1
    47    23    24    1
@<TRIPOS>MOLECULE
*****
 43 47 0 0 0
SMALL
GASTEIGER

@<TRIPOS>ATOM
      1 C          62.7102   86.3906   12.3670 C.3     1  UNL1        0.1696
      2 C          62.1260   87.0237   11.1390 C.3     1  UNL1        0.1274
      3 N          62.2825   88.4327   10.6487 N.am    1  UNL1       -0.2518
      4 C          61.5648   88.7613    9.3731 C.2     1  UNL1        0.2528
      5 O          61.6556   90.1429    8.7959 O.2     1  UNL1       -0.2696
      6 C          63.0617   89.5565   11.2651 C.ar    1  UNL1        0.0678
      7 C          62.9541   90.8103   10.4488 C.ar    1  UNL1        0.0162
      8 C          63.6618   92.0565   10.8916 C.ar    1  UNL1        0.0014
      9 C          64.4770   92.0489   12.1507 C.ar    1  UNL1        0.0014
     10 C          64.5846   90.7951   12.9670 C.ar    1  UNL1        0.0162
     11 C          63.8769   89.5489   12.5242 C.ar    1  UNL1        0.0679
     12 N          64.1143   88.4156   13.4778 N.am    1  UNL1       -0.2517
     13 C          63.5951   87.0100   13.4079 C.2     1  UNL1        0.2493
     14 O          64.0164   86.1042   14.5267 O.2     1  UNL1       -0.2727
     15 C          60.7563   87.7083    8.6748 C.ar    1  UNL1        0.0539
     16 C          61.4246   86.4681    8.1600 C.ar    1  UNL1        0.0045
     17 C          60.6162   85.4152    7.4617 C.ar    1  UNL1        0.0001
     18 C          59.1393   85.6025    7.2781 C.ar    1  UNL1        0.0000
     19 C          58.4709   86.8428    7.7928 C.ar    1  UNL1        0.0001
     20 C          59.2794   87.8957    8.4912 C.ar    1  UNL1        0.0045
     21 C          63.0916   83.8794   11.8213 C.2     1  UNL1        0.2371
     22 O          64.1661   84.2549   10.8442 O.2     1  UNL1       -0.2737
     23 N          62.3637   84.9472   12.5826 N.am    1  UNL1       -0.2959
     24 H          61.6586   84.7008   13.2239 H       1  UNL1        0.1499
     25 C          62.7451   82.4359   12.0369 C.3     1  UNL1        0.1316
     26 C          63.0654   81.4217   10.9791 C.3     1  UNL1        0.0270
     27 C          61.9805   80.5494   13.6512 C.3     1  UNL1        0.0862
     28 N          62.0784   82.0068   13.3102 N.3     1  UNL1       -0.2902
     29 H          62.5857   82.4544   14.0735 H       1  UNL1        0.1237
     30 C          64.9862   88.7294   14.6573 C.3     1  UNL1        0.1278
     31 C          64.7911   90.0093   15.4149 C.ar    1  UNL1        0.0320
     32 C          63.4973   90.2688   16.1281 C.ar    1  UNL1        0.1363
     33 C          63.3021   91.5486   16.8858 C.ar    1  UNL1        0.0366
     34 C          64.4007   92.5689   16.9301 C.ar    1  UNL1        0.0031
     35 C          65.6946   92.3094   16.2168 C.ar    1  UNL1        0.0004
     36 C          66.7932   93.3297   16.2612 C.ar    1  UNL1        0.0067
     37 C          68.0870   93.0701   15.5479 C.ar    1  UNL1        0.0346
     38 BR         69.1856   94.0904   15.5923 Br      1  UNL1       -0.0490
     39 C          68.2822   91.7902   14.7903 C.ar    1  UNL1        0.0067
     40 C          67.1835   90.7700   14.7460 C.ar    1  UNL1        0.0003
     41 C          65.8898   91.0295   15.4592 C.ar    1  UNL1        0.0006
     42 O          62.3986   89.2485   16.0839 O.3     1  UNL1       -0.4717
     43 C          62.1500   87.9531   16.7980 C.3     1  UNL1        0.2525
@<TRIPOS>BOND
     1    27    28    1
     2    28    25    1
     3    25    26    1
     4    25    21    1
     5    21    22    2
     6    21    23   am
     7     1    23    1
     8     1     2    1
     9     2     3    1
    10     3     4   am
    11     4     5    2
    12     4    15    1
    13    15    16   ar
    14    16    17   ar
    15    17    18   ar
    16    18    19   ar
    17    19    20   ar
    18     3     6    1
    19     6     7   ar
    20     7     8   ar
    21     8     9   ar
    22     9    10   ar
    23    10    11   ar
    24    11    12    1
    25    12    30    1
    26    30    31    1
    27    31    32   ar
    28    32    42    1
    29    42    43    1
    30    32    33   ar
    31    33    34   ar
    32    34    35   ar
    33    35    36   ar
    34    36    37   ar
    35    37    38    1
    36    37    39   ar
    37    39    40   ar
    38    40    41   ar
    39    12    13   am
    40    13    14    2
    41    13     1    1
    42    20    15   ar
    43    11     6   ar
    44    41    31   ar
    45    41    35   ar
    46    28    29    1
    47    23    24    1
@<TRIPOS>MOLECULE
*****
 43 47 0 0 0
SMALL
GASTEIGER

@<TRIPOS>ATOM
      1 C          63.0113   86.0576   12.2270 C.3     1  UNL1        0.1696
      2 C          62.8760   84.8946   13.1646 C.3     1  UNL1        0.1274
      3 N          62.8632   84.8992   14.6646 N.am    1  UNL1       -0.2518
      4 C          62.7110   83.5577   15.3182 C.2     1  UNL1        0.2528
      5 O          62.6861   83.4507   16.8142 O.2     1  UNL1       -0.2696
      6 C          62.9826   86.0678   15.5974 C.ar    1  UNL1        0.0678
      7 C          62.9224   85.6326   17.0316 C.ar    1  UNL1        0.0162
      8 C          63.0237   86.6502   18.1289 C.ar    1  UNL1        0.0014
      9 C          63.1853   88.1029   17.7921 C.ar    1  UNL1        0.0014
     10 C          63.2456   88.5381   16.3579 C.ar    1  UNL1        0.0162
     11 C          63.1442   87.5206   15.2606 C.ar    1  UNL1        0.0679
     12 N          63.2263   88.1634   13.9078 N.am    1  UNL1       -0.2517
     13 C          63.1672   87.5124   12.5577 C.2     1  UNL1        0.2493
     14 O          63.2788   88.4385   11.3831 O.2     1  UNL1       -0.2727
     15 C          62.5837   82.3231   14.4758 C.ar    1  UNL1        0.0539
     16 C          61.3092   81.5323   14.4919 C.ar    1  UNL1        0.0045
     17 C          61.1818   80.2978   13.6496 C.ar    1  UNL1        0.0001
     18 C          62.3290   79.8539   12.7911 C.ar    1  UNL1        0.0000
     19 C          63.6035   80.6446   12.7750 C.ar    1  UNL1        0.0001
     20 C          63.7309   81.8792   13.6173 C.ar    1  UNL1        0.0045
     21 C          61.7640   86.0135    9.9484 C.2     1  UNL1        0.2371
     22 O          60.5641   86.6418   10.5930 O.2     1  UNL1       -0.2737
     23 N          62.9876   85.7214   10.7654 N.am    1  UNL1       -0.2959
     24 H          63.7751   85.3090   10.3423 H       1  UNL1        0.1499
     25 C          61.7402   85.6772    8.4868 C.3     1  UNL1        0.1316
     26 C          60.5258   85.9920    7.6644 C.3     1  UNL1        0.0270
     27 C          62.8197   84.4512    6.4665 C.3     1  UNL1        0.0862
     28 N          62.9308   85.0262    7.8475 N.3     1  UNL1       -0.2902
     29 H          63.6689   85.7294    7.8151 H       1  UNL1        0.1237
     30 C          63.3892   89.6545   13.9047 C.3     1  UNL1        0.1278
     31 C          63.2253   90.4243   12.6277 C.ar    1  UNL1        0.0320
     32 C          61.9213   90.3802   11.8876 C.ar    1  UNL1        0.1363
     33 C          61.7573   91.1499   10.6106 C.ar    1  UNL1        0.0366
     34 C          62.8973   91.9638   10.0738 C.ar    1  UNL1        0.0031
     35 C          64.2013   92.0079   10.8139 C.ar    1  UNL1        0.0004
     36 C          65.3412   92.8217   10.2771 C.ar    1  UNL1        0.0067
     37 C          66.6451   92.8658   11.0173 C.ar    1  UNL1        0.0346
     38 BR         67.7851   93.6796   10.4805 Br      1  UNL1       -0.0490
     39 C          66.8091   92.0960   12.2943 C.ar    1  UNL1        0.0067
     40 C          65.6691   91.2822   12.8310 C.ar    1  UNL1        0.0003
     41 C          64.3653   91.2381   12.0909 C.ar    1  UNL1        0.0006
     42 O          60.7813   89.5664   12.4243 O.3     1  UNL1       -0.4717
     43 C          59.3319   89.4364   12.0609 C.3     1  UNL1        0.2525
@<TRIPOS>BOND
     1    27    28    1
     2    28    25    1
     3    25    26    1
     4    25    21    1
     5    21    22    2
     6    21    23   am
     7     1    23    1
     8     1     2    1
     9     2     3    1
    10     3     4   am
    11     4     5    2
    12     4    15    1
    13    15    16   ar
    14    16    17   ar
    15    17    18   ar
    16    18    19   ar
    17    19    20   ar
    18     3     6    1
    19     6     7   ar
    20     7     8   ar
    21     8     9   ar
    22     9    10   ar
    23    10    11   ar
    24    11    12    1
    25    12    30    1
    26    30    31    1
    27    31    32   ar
    28    32    42    1
    29    42    43    1
    30    32    33   ar
    31    33    34   ar
    32    34    35   ar
    33    35    36   ar
    34    36    37   ar
    35    37    38    1
    36    37    39   ar
    37    39    40   ar
    38    40    41   ar
    39    12    13   am
    40    13    14    2
    41    13     1    1
    42    20    15   ar
    43    11     6   ar
    44    41    31   ar
    45    41    35   ar
    46    28    29    1
    47    23    24    1
@<TRIPOS>MOLECULE
*****
 43 47 0 0 0
SMALL
GASTEIGER

@<TRIPOS>ATOM
      1 C          61.7810   86.3274   10.8298 C.3     1  UNL1        0.1696
      2 C          62.5284   85.1497   11.3817 C.3     1  UNL1        0.1274
      3 N          63.4929   85.1087   12.5297 N.am    1  UNL1       -0.2518
      4 C          64.0798   83.7633   12.8389 C.2     1  UNL1        0.2528
      5 O          65.0556   83.6122   13.9681 O.2     1  UNL1       -0.2696
      6 C          63.9483   86.2351   13.4095 C.ar    1  UNL1        0.0678
      7 C          64.9250   85.7615   14.4447 C.ar    1  UNL1        0.0162
      8 C          65.5050   86.7336   15.4288 C.ar    1  UNL1        0.0014
      9 C          65.1083   88.1793   15.3778 C.ar    1  UNL1        0.0014
     10 C          64.1316   88.6529   14.3426 C.ar    1  UNL1        0.0162
     11 C          63.5516   87.6808   13.3584 C.ar    1  UNL1        0.0679
     12 N          62.6015   88.3571   12.4150 N.am    1  UNL1       -0.2517
     13 C          61.8135   87.7549   11.2897 C.2     1  UNL1        0.2493
     14 O          60.9429   88.7056   10.5229 O.2     1  UNL1       -0.2727
     15 C          63.6907   82.5690   12.0190 C.ar    1  UNL1        0.0539
     16 C          64.0353   82.5164   10.5601 C.ar    1  UNL1        0.0045
     17 C          63.6464   81.3222    9.7401 C.ar    1  UNL1        0.0001
     18 C          62.9128   80.1804   10.3791 C.ar    1  UNL1        0.0000
     19 C          62.5682   80.2330   11.8380 C.ar    1  UNL1        0.0001
     20 C          62.9571   81.4273   12.6579 C.ar    1  UNL1        0.0045
     21 C          61.4724   85.6761    8.3338 C.2     1  UNL1        0.2371
     22 O          62.9615   85.6004    8.1694 O.2     1  UNL1       -0.2737
     23 N          60.8822   86.0396    9.6639 N.am    1  UNL1       -0.2959
     24 H          59.9049   86.0893    9.7718 H       1  UNL1        0.1499
     25 C          60.5736   85.3883    7.1678 C.3     1  UNL1        0.1316
     26 C          61.0368   84.4757    6.0712 C.3     1  UNL1        0.0270
     27 C          59.0227   87.4461    7.4993 C.3     1  UNL1        0.0862
     28 N          59.2117   86.0131    7.0986 N.3     1  UNL1       -0.2902
     29 H          58.9007   85.9345    6.1304 H       1  UNL1        0.1237
     30 C          62.4147   89.8306   12.6247 C.3     1  UNL1        0.1278
     31 C          63.4978   90.6388   13.2756 C.ar    1  UNL1        0.0320
     32 C          63.5858   90.7080   14.7714 C.ar    1  UNL1        0.1363
     33 C          64.6689   91.5163   15.4224 C.ar    1  UNL1        0.0366
     34 C          65.6640   92.2553   14.5775 C.ar    1  UNL1        0.0031
     35 C          65.5759   92.1860   13.0816 C.ar    1  UNL1        0.0004
     36 C          66.5709   92.9250   12.2367 C.ar    1  UNL1        0.0067
     37 C          66.4828   92.8557   10.7409 C.ar    1  UNL1        0.0346
     38 BR         67.4779   93.5947    9.8961 Br      1  UNL1       -0.0490
     39 C          65.3997   92.0475   10.0900 C.ar    1  UNL1        0.0067
     40 C          64.4048   91.3085   10.9349 C.ar    1  UNL1        0.0003
     41 C          64.4928   91.3778   12.4307 C.ar    1  UNL1        0.0006
     42 O          62.5909   89.9691   15.6164 O.3     1  UNL1       -0.4717
     43 C          62.6379   89.3536   16.9834 C.3     1  UNL1        0.2525
@<TRIPOS>BOND
     1    27    28    1
     2    28    25    1
     3    25    26    1
     4    25    21    1
     5    21    22    2
     6    21    23   am
     7     1    23    1
     8     1     2    1
     9     2     3    1
    10     3     4   am
    11     4     5    2
    12     4    15    1
    13    15    16   ar
    14    16    17   ar
    15    17    18   ar
    16    18    19   ar
    17    19    20   ar
    18     3     6    1
    19     6     7   ar
    20     7     8   ar
    21     8     9   ar
    22     9    10   ar
    23    10    11   ar
    24    11    12    1
    25    12    30    1
    26    30    31    1
    27    31    32   ar
    28    32    42    1
    29    42    43    1
    30    32    33   ar
    31    33    34   ar
    32    34    35   ar
    33    35    36   ar
    34    36    37   ar
    35    37    38    1
    36    37    39   ar
    37    39    40   ar
    38    40    41   ar
    39    12    13   am
    40    13    14    2
    41    13     1    1
    42    20    15   ar
    43    11     6   ar
    44    41    31   ar
    45    41    35   ar
    46    28    29    1
    47    23    24    1
