@<TRIPOS>MOLECULE
*****
 86 92 0 0 0
SMALL
GASTEIGER

@<TRIPOS>ATOM
      1 C          59.6622   92.1518    3.7036 C.3     1  UNL1        0.0196
      2 C          60.8302   91.5237    4.4047 C.3     1  UNL1        0.0017
      3 C          60.6150   90.7389    5.6648 C.3     1  UNL1        0.0017
      4 C          59.2319   90.5822    6.2238 C.3     1  UNL1        0.0196
      5 C          58.0640   91.2102    5.5228 C.3     1  UNL1        0.0017
      6 C          58.2791   91.9951    4.2627 C.3     1  UNL1        0.0017
      7 C          59.0167   89.7974    7.4838 C.3     1  UNL1        0.0881
      8 N          60.1919   89.2334    8.2261 N.pl3   1  UNL1       -0.3180
      9 H          60.7462   89.8205    8.7895 H       1  UNL1        0.1482
     10 C          60.5227   87.7749    8.1100 C.ar    1  UNL1        0.1317
     11 N          60.0608   86.9940    6.9155 N.ar    1  UNL1       -0.2092
     12 C          60.3915   85.5355    6.7993 C.ar    1  UNL1        0.2000
     13 N          61.1841   84.8580    7.8776 N.ar    1  UNL1       -0.2238
     14 C          61.6460   85.6390    9.0721 C.ar    1  UNL1        0.0888
     15 C          62.4387   84.9615   10.1504 C.ar    1  UNL1        0.0574
     16 C          62.9006   85.7424   11.3449 C.ar    1  UNL1        0.1535
     17 C          62.5699   87.2009   11.4610 C.ar    1  UNL1        0.0850
     18 C          61.7772   87.8784   10.3827 C.ar    1  UNL1        0.0220
     19 C          61.3153   87.0974    9.1883 C.ar    1  UNL1        0.0505
     20 N          63.0318   87.9819   12.6555 N.am    1  UNL1       -0.2802
     21 C          63.0506   89.4811   12.6098 C.2     1  UNL1        0.2443
     22 O          62.6075   90.1993   11.3697 O.2     1  UNL1       -0.2730
     23 H          63.3226   87.5105   13.4694 H       1  UNL1        0.1550
     24 C          63.5125   90.2620   13.8042 C.3     1  UNL1        0.1521
     25 C          63.0406   90.0756   15.2159 C.3     1  UNL1        0.0310
     26 C          63.7638   91.0648   16.0809 C.3     1  UNL1        0.0237
     27 C          64.6827   91.8628   15.2039 C.3     1  UNL1        0.0939
     28 N          64.5274   91.3665   13.7969 N.am    1  UNL1       -0.2717
     29 C          65.2586   91.8840   12.5937 C.2     1  UNL1        0.2438
     30 O          64.9978   91.2861   11.2430 O.2     1  UNL1       -0.2731
     31 C          66.2505   92.9995   12.7413 C.3     1  UNL1        0.1487
     32 C          67.3335   92.9082   13.7751 C.3     1  UNL1        0.0250
     33 C          67.8972   91.7054   13.0783 C.3     1  UNL1        0.0021
     34 C          66.7698   94.1110   14.4718 C.3     1  UNL1        0.0021
     35 C          68.4165   92.8169   14.8089 C.3     1  UNL1        0.0021
     36 N          66.1594   94.2063   11.8551 N.am    1  UNL1       -0.2973
     37 C          66.7513   94.1713   10.4773 C.2     1  UNL1        0.2370
     38 O          67.4343   92.9296    9.9857 O.2     1  UNL1       -0.2737
     39 H          65.7111   95.0213   12.1777 H       1  UNL1        0.1499
     40 C          66.6602   95.3780    9.5910 C.3     1  UNL1        0.1316
     41 C          67.1816   95.3177    8.1858 C.3     1  UNL1        0.0270
     42 N          66.0478   96.6452   10.1099 N.3     1  UNL1       -0.2902
     43 C          64.5651   96.8535   10.0193 C.3     1  UNL1        0.0862
     44 H          66.4848   97.4134    9.6008 H       1  UNL1        0.1237
     45 O          63.6932   85.0650   12.4232 O.3     1  UNL1       -0.4701
     46 C          63.0484   84.0188   13.2831 C.3     1  UNL1        0.2525
     47 C          59.8774   92.9366    2.4436 C.3     1  UNL1        0.0881
     48 N          60.6994   92.3575    1.3305 N.pl3   1  UNL1       -0.3180
     49 H          60.2908   91.7288    0.6925 H       1  UNL1        0.1482
     50 C          61.9978   95.0685   -2.0184 C.ar    1  UNL1        0.0850
     51 C          61.5650   94.1648   -0.9021 C.ar    1  UNL1        0.0220
     52 C          62.5768   93.6400    0.0732 C.ar    1  UNL1        0.0505
     53 C          62.1439   92.7364    1.1894 C.ar    1  UNL1        0.1317
     54 N          63.1556   92.2116    2.1647 N.ar    1  UNL1       -0.2092
     55 C          64.6001   92.5904    2.0236 C.ar    1  UNL1        0.2000
     56 N          65.0329   93.4941    0.9073 N.ar    1  UNL1       -0.2238
     57 C          64.0212   94.0189   -0.0679 C.ar    1  UNL1        0.0888
     58 C          64.4540   94.9225   -1.1842 C.ar    1  UNL1        0.0574
     59 C          63.4424   95.4473   -2.1594 C.ar    1  UNL1        0.1535
     60 C          60.9748   95.0895   -4.4064 C.2     1  UNL1        0.2443
     61 O          61.9750   94.0609   -4.8440 O.2     1  UNL1       -0.2730
     62 N          60.9862   95.5933   -2.9936 N.am    1  UNL1       -0.2802
     63 H          60.3297   96.2684   -2.7064 H       1  UNL1        0.1550
     64 C          57.8287   94.2350   -4.5528 C.2     1  UNL1        0.2438
     65 O          58.5994   93.5414   -3.4689 O.2     1  UNL1       -0.2731
     66 N          58.5169   95.2215   -5.4489 N.am    1  UNL1       -0.2717
     67 C          57.8799   95.9885   -6.5697 C.3     1  UNL1        0.0939
     68 C          58.9324   96.8554   -7.1950 C.3     1  UNL1        0.0237
     69 C          60.2198   96.6241   -6.4608 C.3     1  UNL1        0.0310
     70 C          59.9630   95.6144   -5.3817 C.3     1  UNL1        0.1521
     71 C          56.3696   93.9420   -4.7406 C.3     1  UNL1        0.1487
     72 C          55.9406   92.6814   -5.4310 C.3     1  UNL1        0.0250
     73 C          55.5948   93.4712   -6.6584 C.3     1  UNL1        0.0021
     74 C          56.2864   91.8915   -4.2036 C.3     1  UNL1        0.0021
     75 C          55.5116   91.4207   -6.1214 C.3     1  UNL1        0.0021
     76 C          55.0890   95.0404   -2.7650 C.2     1  UNL1        0.2370
     77 O          55.8684   94.2035   -1.7944 O.2     1  UNL1       -0.2737
     78 N          55.3395   94.9098   -4.2381 N.am    1  UNL1       -0.2973
     79 H          54.8280   95.4591   -4.8751 H       1  UNL1        0.1499
     80 C          54.0590   96.0081   -2.2623 C.3     1  UNL1        0.1316
     81 C          54.1814   96.5847   -0.8830 C.3     1  UNL1        0.0270
     82 C          51.4990   96.1575   -2.6800 C.3     1  UNL1        0.0862
     83 N          52.9065   96.3993   -3.1391 N.3     1  UNL1       -0.2902
     84 H          52.9927   97.4013   -3.3091 H       1  UNL1        0.1237
     85 O          63.8752   96.3510   -3.2757 O.3     1  UNL1       -0.4701
     86 C          65.3341   96.6123   -3.5063 C.3     1  UNL1        0.2525
@<TRIPOS>BOND
     1    82    83    1
     2    83    80    1
     3    80    81    1
     4    80    76    1
     5    76    77    2
     6    76    78   am
     7    71    78    1
     8    71    64    1
     9    64    65    2
    10    64    66   am
    11    66    67    1
    12    67    68    1
    13    68    69    1
    14    69    70    1
    15    70    60    1
    16    60    61    2
    17    60    62   am
    18    62    50    1
    19    50    51   ar
    20    51    52   ar
    21    52    53   ar
    22    53    48    1
    23    48    47    1
    24     1    47    1
    25     1     2    1
    26     2     3    1
    27     3     4    1
    28     4     7    1
    29     7     8    1
    30     8    10    1
    31    10    11   ar
    32    11    12   ar
    33    12    13   ar
    34    13    14   ar
    35    14    15   ar
    36    15    16   ar
    37    16    45    1
    38    45    46    1
    39    16    17   ar
    40    17    20    1
    41    20    21   am
    42    21    22    2
    43    24    21    1
    44    24    25    1
    45    25    26    1
    46    26    27    1
    47    27    28    1
    48    28    29   am
    49    29    30    2
    50    29    31    1
    51    31    36    1
    52    36    37   am
    53    37    38    2
    54    37    40    1
    55    40    41    1
    56    40    42    1
    57    42    43    1
    58    31    32    1
    59    32    33    1
    60    32    34    1
    61    32    35    1
    62    17    18   ar
    63    18    19   ar
    64     4     5    1
    65     5     6    1
    66    53    54   ar
    67    54    55   ar
    68    55    56   ar
    69    56    57   ar
    70    57    58   ar
    71    58    59   ar
    72    59    85    1
    73    85    86    1
    74    71    72    1
    75    72    73    1
    76    72    74    1
    77    72    75    1
    78    70    66    1
    79    59    50   ar
    80    57    52   ar
    81     6     1    1
    82    19    10   ar
    83    19    14   ar
    84    28    24    1
    85    83    84    1
    86    78    79    1
    87    62    63    1
    88    48    49    1
    89     8     9    1
    90    20    23    1
    91    36    39    1
    92    42    44    1
@<TRIPOS>MOLECULE
*****
 86 92 0 0 0
SMALL
GASTEIGER

@<TRIPOS>ATOM
      1 C          59.6324   92.0930    3.7288 C.3     1  UNL1        0.0196
      2 C          60.7803   91.3862    4.3867 C.3     1  UNL1        0.0017
      3 C          60.5498   90.5739    5.6264 C.3     1  UNL1        0.0017
      4 C          59.1713   90.4683    6.2084 C.3     1  UNL1        0.0196
      5 C          58.0234   91.1751    5.5506 C.3     1  UNL1        0.0017
      6 C          58.2539   91.9874    4.3108 C.3     1  UNL1        0.0017
      7 C          58.9408   89.6560    7.4481 C.3     1  UNL1        0.0881
      8 N          60.1090   89.1222    8.2230 N.pl3   1  UNL1       -0.3180
      9 H          60.6210   89.7192    8.8153 H       1  UNL1        0.1482
     10 C          60.4971   87.6789    8.0956 C.ar    1  UNL1        0.1317
     11 N          60.0762   86.8929    6.8894 N.ar    1  UNL1       -0.2092
     12 C          60.4643   85.4495    6.7620 C.ar    1  UNL1        0.2000
     13 N          61.2732   84.7923    7.8407 N.ar    1  UNL1       -0.2238
     14 C          61.6941   85.5785    9.0470 C.ar    1  UNL1        0.0888
     15 C          62.5030   84.9212   10.1257 C.ar    1  UNL1        0.0574
     16 C          62.9238   85.7073   11.3319 C.ar    1  UNL1        0.1535
     17 C          62.5357   87.1506   11.4593 C.ar    1  UNL1        0.0850
     18 C          61.7268   87.8078   10.3806 C.ar    1  UNL1        0.0220
     19 C          61.3060   87.0217    9.1744 C.ar    1  UNL1        0.0505
     20 N          62.9566   87.9368   12.6656 N.am    1  UNL1       -0.2802
     21 C          63.1288   89.4237   12.5691 C.2     1  UNL1        0.2443
     22 O          62.8801   90.1245   11.2664 O.2     1  UNL1       -0.2730
     23 H          63.1197   87.4768   13.5206 H       1  UNL1        0.1550
     24 C          63.5496   90.2098   13.7753 C.3     1  UNL1        0.1521
     25 C          63.0519   90.0092   15.1761 C.3     1  UNL1        0.0310
     26 C          63.7367   91.0099   16.0591 C.3     1  UNL1        0.0237
     27 C          64.6576   91.8290   15.2040 C.3     1  UNL1        0.0939
     28 N          64.5419   91.3345   13.7926 N.am    1  UNL1       -0.2717
     29 C          65.2877   91.8706   12.6066 C.2     1  UNL1        0.2438
     30 O          65.0676   91.2720   11.2490 O.2     1  UNL1       -0.2731
     31 C          66.2536   93.0052   12.7784 C.3     1  UNL1        0.1487
     32 C          67.3395   92.9162   13.8093 C.3     1  UNL1        0.0250
     33 C          67.8653   91.6765   13.1484 C.3     1  UNL1        0.0021
     34 C          66.8138   94.1559   14.4702 C.3     1  UNL1        0.0021
     35 C          68.4255   92.8272   14.8402 C.3     1  UNL1        0.0021
     36 N          66.1336   94.2289   11.9192 N.am    1  UNL1       -0.2973
     37 C          66.8208   94.2802   10.5869 C.2     1  UNL1        0.2370
     38 O          67.6281   93.1078   10.1138 O.2     1  UNL1       -0.2737
     39 H          65.6037   94.9984   12.2297 H       1  UNL1        0.1499
     40 C          66.7009   95.5039    9.7277 C.3     1  UNL1        0.1316
     41 C          67.3679   95.5458    8.3848 C.3     1  UNL1        0.0270
     42 N          65.9138   96.6856   10.2114 N.3     1  UNL1       -0.2902
     43 C          64.4465   96.7817    9.9149 C.3     1  UNL1        0.0862
     44 H          66.3504   97.5149    9.8088 H       1  UNL1        0.1237
     45 O          63.7327   85.0501   12.4107 O.3     1  UNL1       -0.4701
     46 C          63.0757   84.6359   13.6939 C.3     1  UNL1        0.2525
     47 C          59.8629   92.9053    2.4891 C.3     1  UNL1        0.0881
     48 N          60.7680   92.3876    1.4108 N.pl3   1  UNL1       -0.3180
     49 H          60.4257   91.7467    0.7464 H       1  UNL1        0.1482
     50 C          62.0588   95.2680   -1.7966 C.ar    1  UNL1        0.0850
     51 C          61.6285   94.3078   -0.7275 C.ar    1  UNL1        0.0220
     52 C          62.6249   93.8065    0.2755 C.ar    1  UNL1        0.0505
     53 C          62.1946   92.8464    1.3447 C.ar    1  UNL1        0.1317
     54 N          63.1909   92.3451    2.3477 N.ar    1  UNL1       -0.2092
     55 C          64.6175   92.8039    2.2816 C.ar    1  UNL1        0.2000
     56 N          65.0477   93.7640    1.2124 N.ar    1  UNL1       -0.2238
     57 C          64.0515   94.2653    0.2094 C.ar    1  UNL1        0.0888
     58 C          64.4817   95.2255   -0.8597 C.ar    1  UNL1        0.0574
     59 C          63.4855   95.7268   -1.8627 C.ar    1  UNL1        0.1535
     60 C          61.0268   95.1818   -4.1794 C.2     1  UNL1        0.2443
     61 O          61.9873   94.0930   -4.5561 O.2     1  UNL1       -0.2730
     62 N          61.0625   95.7693   -2.7996 N.am    1  UNL1       -0.2802
     63 H          60.4321   96.4839   -2.5524 H       1  UNL1        0.1550
     64 C          57.8142   94.6095   -4.1428 C.2     1  UNL1        0.2438
     65 O          58.5597   93.9758   -3.0059 O.2     1  UNL1       -0.2731
     66 N          58.5538   95.4201   -5.1655 N.am    1  UNL1       -0.2717
     67 C          57.9465   96.1100   -6.3511 C.3     1  UNL1        0.0939
     68 C          59.0479   96.7994   -7.1005 C.3     1  UNL1        0.0237
     69 C          60.3358   96.5356   -6.3782 C.3     1  UNL1        0.0310
     70 C          60.0304   95.6832   -5.1824 C.3     1  UNL1        0.1521
     71 C          56.3290   94.4327   -4.2570 C.3     1  UNL1        0.1487
     72 C          55.4118   95.1787   -3.3340 C.3     1  UNL1        0.0250
     73 C          56.1010   94.5640   -2.1521 C.3     1  UNL1        0.0021
     74 C          54.7225   95.7935   -4.5159 C.3     1  UNL1        0.0021
     75 C          54.4945   95.9248   -2.4110 C.3     1  UNL1        0.0021
     76 C          55.7758   92.0271   -5.0674 C.2     1  UNL1        0.2370
     77 O          56.3582   91.4673   -3.8035 O.2     1  UNL1       -0.2737
     78 N          55.7612   93.5097   -5.2942 N.am    1  UNL1       -0.2973
     79 H          55.3789   93.8771   -6.1237 H       1  UNL1        0.1499
     80 C          55.2079   91.1041   -6.1045 C.3     1  UNL1        0.1316
     81 C          55.3143   91.4542   -7.5592 C.3     1  UNL1        0.0270
     82 C          53.3145   89.3530   -6.4185 C.3     1  UNL1        0.0862
     83 N          54.5337   89.8309   -5.6869 N.3     1  UNL1       -0.2902
     84 H          55.2310   89.0903   -5.7615 H       1  UNL1        0.1237
     85 O          63.9157   96.6869   -2.9319 O.3     1  UNL1       -0.4701
     86 C          64.9291   96.2658   -3.9544 C.3     1  UNL1        0.2525
@<TRIPOS>BOND
     1    82    83    1
     2    83    80    1
     3    80    81    1
     4    80    76    1
     5    76    77    2
     6    76    78   am
     7    71    78    1
     8    71    64    1
     9    64    65    2
    10    64    66   am
    11    66    67    1
    12    67    68    1
    13    68    69    1
    14    69    70    1
    15    70    60    1
    16    60    61    2
    17    60    62   am
    18    62    50    1
    19    50    51   ar
    20    51    52   ar
    21    52    53   ar
    22    53    48    1
    23    48    47    1
    24     1    47    1
    25     1     2    1
    26     2     3    1
    27     3     4    1
    28     4     7    1
    29     7     8    1
    30     8    10    1
    31    10    11   ar
    32    11    12   ar
    33    12    13   ar
    34    13    14   ar
    35    14    15   ar
    36    15    16   ar
    37    16    45    1
    38    45    46    1
    39    16    17   ar
    40    17    20    1
    41    20    21   am
    42    21    22    2
    43    24    21    1
    44    24    25    1
    45    25    26    1
    46    26    27    1
    47    27    28    1
    48    28    29   am
    49    29    30    2
    50    29    31    1
    51    31    36    1
    52    36    37   am
    53    37    38    2
    54    37    40    1
    55    40    41    1
    56    40    42    1
    57    42    43    1
    58    31    32    1
    59    32    33    1
    60    32    34    1
    61    32    35    1
    62    17    18   ar
    63    18    19   ar
    64     4     5    1
    65     5     6    1
    66    53    54   ar
    67    54    55   ar
    68    55    56   ar
    69    56    57   ar
    70    57    58   ar
    71    58    59   ar
    72    59    85    1
    73    85    86    1
    74    71    72    1
    75    72    73    1
    76    72    74    1
    77    72    75    1
    78    70    66    1
    79    59    50   ar
    80    57    52   ar
    81     6     1    1
    82    19    10   ar
    83    19    14   ar
    84    28    24    1
    85    83    84    1
    86    78    79    1
    87    62    63    1
    88    48    49    1
    89     8     9    1
    90    20    23    1
    91    36    39    1
    92    42    44    1
