@<TRIPOS>MOLECULE
*****
 34 37 0 0 0
SMALL
GASTEIGER

@<TRIPOS>ATOM
      1 C          60.4994   89.6211   11.5462 C.2     1  UNL1        0.2665
      2 O          59.2490   90.3581   11.9246 O.2     1  UNL1       -0.2710
      3 N          60.4192   88.1970   11.0819 N.am    1  UNL1       -0.2714
      4 C          59.0885   87.5100   10.9960 C.3     1  UNL1        0.1153
      5 C          66.1249   92.7570   11.1932 C.ar    1  UNL1        0.0531
      6 C          66.2403   92.3532   12.6332 C.ar    1  UNL1        0.0179
      7 C          65.1457   91.5563   13.2788 C.ar    1  UNL1        0.0379
      8 C          63.9355   91.1633   12.4844 C.ar    1  UNL1        0.1353
      9 C          63.8201   91.5671   11.0444 C.ar    1  UNL1        0.0172
     10 C          64.9148   92.3639   10.3989 C.ar    1  UNL1        0.0136
     11 C          62.5188   91.0385   10.5176 C.3     1  UNL1        0.0826
     12 C          61.8301   90.3081   11.6321 C.3     1  UNL1        0.2456
     13 O          62.7057   90.3852   12.8476 O.3     1  UNL1       -0.4699
     14 C          66.9537   94.9554   10.0842 C.2     1  UNL1        0.4055
     15 O          65.5931   95.5602   10.2664 O.2     1  UNL1       -0.2261
     16 N          67.2195   93.5538   10.5477 N.am    1  UNL1       -0.2499
     17 H          68.1125   93.1569   10.4281 H       1  UNL1        0.1582
     18 C          67.7255   96.7087    8.3291 C.3     1  UNL1        0.2574
     19 O          68.0483   95.7522    9.4387 O.3     1  UNL1       -0.4304
     20 C          61.6696   87.4599   10.7035 C.3     1  UNL1        0.1139
     21 C          61.7077   86.6440    9.4454 C.ar    1  UNL1       -0.0029
     22 C          60.5162   86.6140    8.5347 C.ar    1  UNL1       -0.0026
     23 C          60.5543   85.7981    7.2765 C.ar    1  UNL1       -0.0003
     24 C          61.7837   85.0122    6.9292 C.ar    1  UNL1       -0.0000
     25 C          62.9753   85.0422    7.8400 C.ar    1  UNL1       -0.0003
     26 C          62.9372   85.8581    9.0981 C.ar    1  UNL1       -0.0026
     27 C          62.8820   87.5388   11.5832 C.3     1  UNL1        0.0968
     28 N          63.1249   86.4842   12.6219 N.3     1  UNL1       -0.2689
     29 C          62.6175   85.0732   12.5812 C.3     1  UNL1        0.0748
     30 C          63.0968   84.3724   13.8178 C.3     1  UNL1        0.0480
     31 C          63.9004   85.3502   14.6227 C.3     1  UNL1        0.1278
     32 O          64.5692   85.0718   15.9362 O.3     1  UNL1       -0.3830
     33 C          63.9178   86.6555   13.8837 C.3     1  UNL1        0.1017
     34 H          65.0228   85.8720   16.2441 H       1  UNL1        0.2104
@<TRIPOS>BOND
     1    18    19    1
     2    19    14    1
     3    14    15    2
     4    14    16   am
     5    16     5    1
     6     5     6   ar
     7     6     7   ar
     8     7     8   ar
     9     8     9   ar
    10     9    10   ar
    11     9    11    1
    12    11    12    1
    13    12     1    1
    14     1     2    2
    15     1     3   am
    16     3     4    1
    17     3    20    1
    18    20    27    1
    19    27    28    1
    20    28    29    1
    21    29    30    1
    22    30    31    1
    23    31    32    1
    24    31    33    1
    25    20    21    1
    26    21    22   ar
    27    22    23   ar
    28    23    24   ar
    29    24    25   ar
    30    25    26   ar
    31    12    13    1
    32    10     5   ar
    33    33    28    1
    34    26    21   ar
    35    13     8    1
    36    16    17    1
    37    32    34    1
@<TRIPOS>MOLECULE
*****
 34 37 0 0 0
SMALL
GASTEIGER

@<TRIPOS>ATOM
      1 C          60.5763   89.9773   11.0408 C.2     1  UNL1        0.2665
      2 O          59.3678   90.8487   11.2140 O.2     1  UNL1       -0.2710
      3 N          60.4150   88.5451   10.6251 N.am    1  UNL1       -0.2714
      4 C          59.0451   87.9843   10.3826 C.3     1  UNL1        0.1153
      5 C          66.3938   92.1452   12.7906 C.ar    1  UNL1        0.0531
      6 C          66.4608   92.5991   11.3625 C.ar    1  UNL1        0.0179
      7 C          65.3079   92.3404   10.4385 C.ar    1  UNL1        0.0379
      8 C          64.0880   91.6279   10.9425 C.ar    1  UNL1        0.1353
      9 C          64.0210   91.1740   12.3705 C.ar    1  UNL1        0.0172
     10 C          65.1739   91.4327   13.2946 C.ar    1  UNL1        0.0136
     11 C          62.6973   90.5004   12.5813 C.3     1  UNL1        0.0826
     12 C          61.9463   90.5380   11.2834 C.3     1  UNL1        0.2456
     13 O          62.8058   91.2348   10.2706 O.3     1  UNL1       -0.4699
     14 C          67.2929   92.7486   15.1523 C.2     1  UNL1        0.4055
     15 O          65.8861   92.8347   15.6658 O.2     1  UNL1       -0.2261
     16 N          67.5467   92.4039   13.7147 N.am    1  UNL1       -0.2499
     17 H          68.4700   92.3474   13.3776 H       1  UNL1        0.1582
     18 C          69.1840   94.3114   16.0078 C.3     1  UNL1        0.2574
     19 O          68.4458   93.0073   16.0763 O.3     1  UNL1       -0.4304
     20 C          61.6236   87.6736   10.4520 C.3     1  UNL1        0.1139
     21 C          61.7209   86.7520    9.2725 C.ar    1  UNL1       -0.0029
     22 C          60.5417   86.5701    8.3635 C.ar    1  UNL1       -0.0026
     23 C          60.6390   85.6484    7.1841 C.ar    1  UNL1       -0.0003
     24 C          61.9156   84.9087    6.9136 C.ar    1  UNL1       -0.0000
     25 C          63.0949   85.0906    7.8226 C.ar    1  UNL1       -0.0003
     26 C          62.9976   86.0123    9.0021 C.ar    1  UNL1       -0.0026
     27 C          62.7348   87.7239   11.4582 C.3     1  UNL1        0.0968
     28 N          62.9498   86.5733   12.3963 N.3     1  UNL1       -0.2689
     29 C          62.3236   85.2150   12.2835 C.3     1  UNL1        0.0748
     30 C          62.8155   84.3812   13.4293 C.3     1  UNL1        0.0480
     31 C          63.7457   85.2242   14.2503 C.3     1  UNL1        0.1278
     32 O          64.4663   84.7889   15.4917 O.3     1  UNL1       -0.3830
     33 C          63.8287   86.5791   13.6119 C.3     1  UNL1        0.1017
     34 H          65.0035   85.5232   15.8281 H       1  UNL1        0.2104
@<TRIPOS>BOND
     1    18    19    1
     2    19    14    1
     3    14    15    2
     4    14    16   am
     5    16     5    1
     6     5     6   ar
     7     6     7   ar
     8     7     8   ar
     9     8     9   ar
    10     9    10   ar
    11     9    11    1
    12    11    12    1
    13    12     1    1
    14     1     2    2
    15     1     3   am
    16     3     4    1
    17     3    20    1
    18    20    27    1
    19    27    28    1
    20    28    29    1
    21    29    30    1
    22    30    31    1
    23    31    32    1
    24    31    33    1
    25    20    21    1
    26    21    22   ar
    27    22    23   ar
    28    23    24   ar
    29    24    25   ar
    30    25    26   ar
    31    12    13    1
    32    10     5   ar
    33    33    28    1
    34    26    21   ar
    35    13     8    1
    36    16    17    1
    37    32    34    1
@<TRIPOS>MOLECULE
*****
 34 37 0 0 0
SMALL
GASTEIGER

@<TRIPOS>ATOM
      1 C          64.2115   90.9642   15.3206 C.2     1  UNL1        0.2665
      2 O          64.1921   91.7556   16.5947 O.2     1  UNL1       -0.2710
      3 N          63.4792   89.6577   15.2380 N.am    1  UNL1       -0.2714
      4 C          62.7276   89.1425   16.4295 C.3     1  UNL1        0.1153
      5 C          66.8062   93.5242    9.9991 C.ar    1  UNL1        0.0531
      6 C          68.0371   92.8042   10.4644 C.ar    1  UNL1        0.0179
      7 C          68.0016   91.9981   11.7289 C.ar    1  UNL1        0.0379
      8 C          66.7353   91.9120   12.5281 C.ar    1  UNL1        0.1353
      9 C          65.5044   92.6320   12.0629 C.ar    1  UNL1        0.0172
     10 C          65.5398   93.4380   10.7984 C.ar    1  UNL1        0.0136
     11 C          64.4091   92.3646   13.0523 C.3     1  UNL1        0.0826
     12 C          64.9631   91.4793   14.1291 C.3     1  UNL1        0.2456
     13 O          66.4008   91.1997   13.8051 O.3     1  UNL1       -0.4699
     14 C          66.9306   95.8261    8.8010 C.2     1  UNL1        0.4055
     15 O          66.9841   96.5160   10.1319 O.2     1  UNL1       -0.2261
     16 N          66.8417   94.3302    8.7346 N.am    1  UNL1       -0.2499
     17 H          66.8066   93.8775    7.8611 H       1  UNL1        0.1582
     18 C          65.7060   96.8559    6.7541 C.3     1  UNL1        0.2574
     19 O          66.9661   96.6322    7.5365 O.3     1  UNL1       -0.4304
     20 C          63.4986   88.8663   13.9639 C.3     1  UNL1        0.1139
     21 C          62.6361   89.2825   12.8093 C.ar    1  UNL1       -0.0029
     22 C          63.2262   89.3956   11.4349 C.ar    1  UNL1       -0.0026
     23 C          62.3637   89.8118   10.2804 C.ar    1  UNL1       -0.0003
     24 C          60.9112   90.1149   10.5003 C.ar    1  UNL1       -0.0000
     25 C          60.3211   90.0018   11.8747 C.ar    1  UNL1       -0.0003
     26 C          61.1836   89.5856   13.0292 C.ar    1  UNL1       -0.0026
     27 C          64.3804   87.6588   13.8443 C.3     1  UNL1        0.0968
     28 N          63.7838   86.2844   13.9158 N.3     1  UNL1       -0.2689
     29 C          63.1546   85.5361   12.7782 C.3     1  UNL1        0.0748
     30 C          62.6936   84.2062   13.2968 C.3     1  UNL1        0.0480
     31 C          63.0379   84.1326   14.7548 C.3     1  UNL1        0.1278
     32 O          62.7577   82.9774   15.6697 O.3     1  UNL1       -0.3830
     33 C          63.7118   85.4170   15.1375 C.3     1  UNL1        0.1017
     34 H          63.0809   83.1846   16.5605 H       1  UNL1        0.2104
@<TRIPOS>BOND
     1    18    19    1
     2    19    14    1
     3    14    15    2
     4    14    16   am
     5    16     5    1
     6     5     6   ar
     7     6     7   ar
     8     7     8   ar
     9     8     9   ar
    10     9    10   ar
    11     9    11    1
    12    11    12    1
    13    12     1    1
    14     1     2    2
    15     1     3   am
    16     3     4    1
    17     3    20    1
    18    20    27    1
    19    27    28    1
    20    28    29    1
    21    29    30    1
    22    30    31    1
    23    31    32    1
    24    31    33    1
    25    20    21    1
    26    21    22   ar
    27    22    23   ar
    28    23    24   ar
    29    24    25   ar
    30    25    26   ar
    31    12    13    1
    32    10     5   ar
    33    33    28    1
    34    26    21   ar
    35    13     8    1
    36    16    17    1
    37    32    34    1
@<TRIPOS>MOLECULE
*****
 34 37 0 0 0
SMALL
GASTEIGER

@<TRIPOS>ATOM
      1 C          60.8161   89.8750   11.5913 C.2     1  UNL1        0.2665
      2 O          59.5834   90.6782   11.8836 O.2     1  UNL1       -0.2710
      3 N          60.6934   88.4466   11.1501 N.am    1  UNL1       -0.2714
      4 C          59.3381   87.8214   11.0011 C.3     1  UNL1        0.1153
      5 C          66.6370   92.3058   12.9375 C.ar    1  UNL1        0.0531
      6 C          66.5724   92.7841   11.5173 C.ar    1  UNL1        0.0179
      7 C          65.3664   92.4819   10.6782 C.ar    1  UNL1        0.0379
      8 C          64.2249   91.7013   11.2593 C.ar    1  UNL1        0.1353
      9 C          64.2895   91.2230   12.6795 C.ar    1  UNL1        0.0172
     10 C          65.4955   91.5253   13.5186 C.ar    1  UNL1        0.0136
     11 C          63.0204   90.4806   12.9768 C.3     1  UNL1        0.0826
     12 C          62.1715   90.5001   11.7403 C.3     1  UNL1        0.2456
     13 O          62.9159   91.2546   10.6789 O.3     1  UNL1       -0.4699
     14 C          67.6982   92.7967   15.2576 C.2     1  UNL1        0.4055
     15 O          66.3472   92.6831   15.8996 O.2     1  UNL1       -0.2261
     16 N          67.8431   92.6080   13.7766 N.am    1  UNL1       -0.2499
     17 H          68.7297   92.6826   13.3553 H       1  UNL1        0.1582
     18 C          69.4693   94.4882   16.1249 C.3     1  UNL1        0.2574
     19 O          68.9043   93.0989   16.0967 O.3     1  UNL1       -0.4304
     20 C          61.9261   87.6434   10.8578 C.3     1  UNL1        0.1139
     21 C          62.5486   86.8060   11.9355 C.ar    1  UNL1       -0.0029
     22 C          62.2517   85.3377   12.0100 C.ar    1  UNL1       -0.0026
     23 C          62.8742   84.5003   13.0876 C.ar    1  UNL1       -0.0003
     24 C          63.7937   85.1314   14.0907 C.ar    1  UNL1       -0.0000
     25 C          64.0907   86.5998   14.0162 C.ar    1  UNL1       -0.0003
     26 C          63.4682   87.4372   12.9386 C.ar    1  UNL1       -0.0026
     27 C          62.5362   87.6775    9.4880 C.3     1  UNL1        0.0968
     28 N          62.3914   86.4979    8.5728 N.3     1  UNL1       -0.2689
     29 C          63.4227   85.4352    8.3343 C.3     1  UNL1        0.0748
     30 C          62.8585   84.4544    7.3496 C.3     1  UNL1        0.0480
     31 C          61.4785   84.9110    6.9794 C.3     1  UNL1        0.1278
     32 O          60.5502   84.2250    6.0214 O.3     1  UNL1       -0.3830
     33 C          61.1897   86.1740    7.7354 C.3     1  UNL1        0.1017
     34 H          59.7213   84.7251    5.9603 H       1  UNL1        0.2104
@<TRIPOS>BOND
     1    18    19    1
     2    19    14    1
     3    14    15    2
     4    14    16   am
     5    16     5    1
     6     5     6   ar
     7     6     7   ar
     8     7     8   ar
     9     8     9   ar
    10     9    10   ar
    11     9    11    1
    12    11    12    1
    13    12     1    1
    14     1     2    2
    15     1     3   am
    16     3     4    1
    17     3    20    1
    18    20    27    1
    19    27    28    1
    20    28    29    1
    21    29    30    1
    22    30    31    1
    23    31    32    1
    24    31    33    1
    25    20    21    1
    26    21    22   ar
    27    22    23   ar
    28    23    24   ar
    29    24    25   ar
    30    25    26   ar
    31    12    13    1
    32    10     5   ar
    33    33    28    1
    34    26    21   ar
    35    13     8    1
    36    16    17    1
    37    32    34    1
@<TRIPOS>MOLECULE
*****
 34 37 0 0 0
SMALL
GASTEIGER

@<TRIPOS>ATOM
      1 C          64.0569   90.5386   15.3493 C.2     1  UNL1        0.2665
      2 O          63.8615   91.3178   16.6160 O.2     1  UNL1       -0.2710
      3 N          63.5052   89.1488   15.2310 N.am    1  UNL1       -0.2714
      4 C          62.7582   88.5381   16.3794 C.3     1  UNL1        0.1153
      5 C          66.6060   93.4275   10.1762 C.ar    1  UNL1        0.0531
      6 C          67.8893   92.8657   10.7123 C.ar    1  UNL1        0.0179
      7 C          67.8840   92.0560   11.9750 C.ar    1  UNL1        0.0379
      8 C          66.5953   91.8080   12.7015 C.ar    1  UNL1        0.1353
      9 C          65.3121   92.3699   12.1654 C.ar    1  UNL1        0.0172
     10 C          65.3174   93.1796   10.9028 C.ar    1  UNL1        0.0136
     11 C          64.2049   91.9628   13.0920 C.3     1  UNL1        0.0826
     12 C          64.8040   91.1493   14.2008 C.3     1  UNL1        0.2456
     13 O          66.2814   91.0537   13.9594 O.3     1  UNL1       -0.4699
     14 C          66.7942   95.7247    8.9772 C.2     1  UNL1        0.4055
     15 O          66.9718   96.4024   10.3036 O.2     1  UNL1       -0.2261
     16 N          66.6114   94.2373    8.9136 N.am    1  UNL1       -0.2499
     17 H          66.4948   93.7925    8.0430 H       1  UNL1        0.1582
     18 C          65.5166   96.7848    6.9788 C.3     1  UNL1        0.2574
     19 O          66.7996   96.5344    7.7146 O.3     1  UNL1       -0.4304
     20 C          63.7006   88.3696   13.9642 C.3     1  UNL1        0.1139
     21 C          64.0502   86.9123   14.0264 C.ar    1  UNL1       -0.0029
     22 C          65.0999   86.4330   14.9848 C.ar    1  UNL1       -0.0026
     23 C          65.4494   84.9757   15.0470 C.ar    1  UNL1       -0.0003
     24 C          64.7494   83.9975   14.1509 C.ar    1  UNL1       -0.0000
     25 C          63.6997   84.4767   13.1924 C.ar    1  UNL1       -0.0003
     26 C          63.3501   85.9341   13.1302 C.ar    1  UNL1       -0.0026
     27 C          63.5465   89.0478   12.6352 C.3     1  UNL1        0.0968
     28 N          62.2367   88.9820   11.9070 N.3     1  UNL1       -0.2689
     29 C          60.9791   89.7053   12.2876 C.3     1  UNL1        0.0748
     30 C          59.9197   89.3517   11.2862 C.3     1  UNL1        0.0480
     31 C          60.5227   88.4097   10.2867 C.3     1  UNL1        0.1278
     32 O          59.8175   87.8028    9.1101 O.3     1  UNL1       -0.3830
     33 C          61.9548   88.1812   10.6703 C.3     1  UNL1        0.1017
     34 H          60.4324   87.2310    8.6244 H       1  UNL1        0.2104
@<TRIPOS>BOND
     1    18    19    1
     2    19    14    1
     3    14    15    2
     4    14    16   am
     5    16     5    1
     6     5     6   ar
     7     6     7   ar
     8     7     8   ar
     9     8     9   ar
    10     9    10   ar
    11     9    11    1
    12    11    12    1
    13    12     1    1
    14     1     2    2
    15     1     3   am
    16     3     4    1
    17     3    20    1
    18    20    27    1
    19    27    28    1
    20    28    29    1
    21    29    30    1
    22    30    31    1
    23    31    32    1
    24    31    33    1
    25    20    21    1
    26    21    22   ar
    27    22    23   ar
    28    23    24   ar
    29    24    25   ar
    30    25    26   ar
    31    12    13    1
    32    10     5   ar
    33    33    28    1
    34    26    21   ar
    35    13     8    1
    36    16    17    1
    37    32    34    1
@<TRIPOS>MOLECULE
*****
 34 37 0 0 0
SMALL
GASTEIGER

@<TRIPOS>ATOM
      1 C          63.4589   84.5973   13.7207 C.2     1  UNL1        0.2665
      2 O          64.0368   83.4383   14.4775 O.2     1  UNL1       -0.2710
      3 N          62.7311   84.3626   12.4303 N.am    1  UNL1       -0.2714
      4 C          62.5812   82.9688   11.8966 C.3     1  UNL1        0.1153
      5 C          64.5200   90.7321   15.4068 C.ar    1  UNL1        0.0531
      6 C          63.6780   90.3682   16.5936 C.ar    1  UNL1        0.0179
      7 C          63.1272   88.9792   16.7248 C.ar    1  UNL1        0.0379
      8 C          63.4184   87.9541   15.6692 C.ar    1  UNL1        0.1353
      9 C          64.2604   88.3180   14.4824 C.ar    1  UNL1        0.0172
     10 C          64.8112   89.7070   14.3512 C.ar    1  UNL1        0.0136
     11 C          64.3781   87.1048   13.6080 C.3     1  UNL1        0.0826
     12 C          63.6088   85.9912   14.2545 C.3     1  UNL1        0.2456
     13 O          63.0157   86.5160   15.5284 O.3     1  UNL1       -0.4699
     14 C          66.5538   92.3370   15.2116 C.2     1  UNL1        0.4055
     15 O          67.4861   91.1637   15.2789 O.2     1  UNL1       -0.2261
     16 N          65.0708   92.1212   15.2756 N.am    1  UNL1       -0.2499
     17 H          64.4590   92.8912   15.2314 H       1  UNL1        0.1582
     18 C          68.4358   94.0650   15.6830 C.3     1  UNL1        0.2574
     19 O          67.1046   93.7260   15.0804 O.3     1  UNL1       -0.4304
     20 C          62.1532   85.5217   11.6736 C.3     1  UNL1        0.1139
     21 C          62.0650   85.4712   10.1770 C.ar    1  UNL1       -0.0029
     22 C          60.8352   85.9743    9.4809 C.ar    1  UNL1       -0.0026
     23 C          60.7470   85.9238    7.9843 C.ar    1  UNL1       -0.0003
     24 C          61.8884   85.3703    7.1839 C.ar    1  UNL1       -0.0000
     25 C          63.1183   84.8673    7.8801 C.ar    1  UNL1       -0.0003
     26 C          63.2065   84.9177    9.3767 C.ar    1  UNL1       -0.0026
     27 C          61.6636   86.7312   12.4134 C.3     1  UNL1        0.0968
     28 N          61.4605   88.0257   11.6833 N.3     1  UNL1       -0.2689
     29 C          60.1420   88.6873   11.4118 C.3     1  UNL1        0.0748
     30 C          60.4068   89.9564   10.6572 C.3     1  UNL1        0.0480
     31 C          61.8890   90.0791   10.4625 C.3     1  UNL1        0.1278
     32 O          62.5959   91.1986    9.7574 O.3     1  UNL1       -0.3830
     33 C          62.5403   88.8859   11.0967 C.3     1  UNL1        0.1017
     34 H          63.5522   91.0365    9.7709 H       1  UNL1        0.2104
@<TRIPOS>BOND
     1    18    19    1
     2    19    14    1
     3    14    15    2
     4    14    16   am
     5    16     5    1
     6     5     6   ar
     7     6     7   ar
     8     7     8   ar
     9     8     9   ar
    10     9    10   ar
    11     9    11    1
    12    11    12    1
    13    12     1    1
    14     1     2    2
    15     1     3   am
    16     3     4    1
    17     3    20    1
    18    20    27    1
    19    27    28    1
    20    28    29    1
    21    29    30    1
    22    30    31    1
    23    31    32    1
    24    31    33    1
    25    20    21    1
    26    21    22   ar
    27    22    23   ar
    28    23    24   ar
    29    24    25   ar
    30    25    26   ar
    31    12    13    1
    32    10     5   ar
    33    33    28    1
    34    26    21   ar
    35    13     8    1
    36    16    17    1
    37    32    34    1
@<TRIPOS>MOLECULE
*****
 34 37 0 0 0
SMALL
GASTEIGER

@<TRIPOS>ATOM
      1 C          63.5530   89.6902   15.9266 C.2     1  UNL1        0.2665
      2 O          63.3045   90.5014   17.1635 O.2     1  UNL1       -0.2710
      3 N          63.4130   88.1973   15.9680 N.am    1  UNL1       -0.2714
      4 C          63.0245   87.5157   17.2464 C.3     1  UNL1        0.1153
      5 C          65.8801   92.7736   10.7611 C.ar    1  UNL1        0.0531
      6 C          64.5446   92.4291   10.1716 C.ar    1  UNL1        0.0179
      7 C          63.5403   91.6666   10.9840 C.ar    1  UNL1        0.0379
      8 C          63.8716   91.2485   12.3859 C.ar    1  UNL1        0.1353
      9 C          65.2072   91.5930   12.9754 C.ar    1  UNL1        0.0172
     10 C          66.2114   92.3556   12.1630 C.ar    1  UNL1        0.0136
     11 C          65.2504   91.0512   14.3736 C.3     1  UNL1        0.0826
     12 C          63.9416   90.3719   14.6481 C.3     1  UNL1        0.2456
     13 O          63.0895   90.4938   13.4196 O.3     1  UNL1       -0.4699
     14 C          66.7800   95.0282    9.8354 C.2     1  UNL1        0.4055
     15 O          65.6713   95.7578   10.5345 O.2     1  UNL1       -0.2261
     16 N          66.8844   93.5362    9.9487 N.am    1  UNL1       -0.2499
     17 H          67.6120   93.0574    9.4899 H       1  UNL1        0.1582
     18 C          67.3237   96.8317    8.0460 C.3     1  UNL1        0.2574
     19 O          67.7842   95.7908    9.0230 O.3     1  UNL1       -0.4304
     20 C          63.6615   87.3861   14.7309 C.3     1  UNL1        0.1139
     21 C          63.8496   85.9015   14.8329 C.ar    1  UNL1       -0.0029
     22 C          65.1731   85.2875   14.4846 C.ar    1  UNL1       -0.0026
     23 C          65.3612   83.8028   14.5865 C.ar    1  UNL1       -0.0003
     24 C          64.2259   82.9321   15.0368 C.ar    1  UNL1       -0.0000
     25 C          62.9023   83.5461   15.3852 C.ar    1  UNL1       -0.0003
     26 C          62.7142   85.0308   15.2832 C.ar    1  UNL1       -0.0026
     27 C          63.7219   88.0596   13.3920 C.3     1  UNL1        0.0968
     28 N          62.9531   87.4962   12.2337 N.3     1  UNL1       -0.2689
     29 C          62.7858   86.0410   11.9108 C.3     1  UNL1        0.0748
     30 C          61.9459   85.9345   10.6725 C.3     1  UNL1        0.0480
     31 C          61.5941   87.3239   10.2302 C.3     1  UNL1        0.1278
     32 O          60.7653   87.6848    9.0332 O.3     1  UNL1       -0.3830
     33 C          62.2166   88.2892   11.1951 C.3     1  UNL1        0.1017
     34 H          60.6886   88.6499    8.9720 H       1  UNL1        0.2104
@<TRIPOS>BOND
     1    18    19    1
     2    19    14    1
     3    14    15    2
     4    14    16   am
     5    16     5    1
     6     5     6   ar
     7     6     7   ar
     8     7     8   ar
     9     8     9   ar
    10     9    10   ar
    11     9    11    1
    12    11    12    1
    13    12     1    1
    14     1     2    2
    15     1     3   am
    16     3     4    1
    17     3    20    1
    18    20    27    1
    19    27    28    1
    20    28    29    1
    21    29    30    1
    22    30    31    1
    23    31    32    1
    24    31    33    1
    25    20    21    1
    26    21    22   ar
    27    22    23   ar
    28    23    24   ar
    29    24    25   ar
    30    25    26   ar
    31    12    13    1
    32    10     5   ar
    33    33    28    1
    34    26    21   ar
    35    13     8    1
    36    16    17    1
    37    32    34    1
@<TRIPOS>MOLECULE
*****
 34 37 0 0 0
SMALL
GASTEIGER

@<TRIPOS>ATOM
      1 C          63.3974   88.2655   16.5254 C.2     1  UNL1        0.2665
      2 O          63.0040   88.2795   17.9728 O.2     1  UNL1       -0.2710
      3 N          63.5886   89.5574   15.7876 N.am    1  UNL1       -0.2714
      4 C          63.3866   90.8633   16.4972 C.3     1  UNL1        0.1153
      5 C          63.6083   82.4383   13.7678 C.ar    1  UNL1        0.0531
      6 C          64.9128   82.9374   13.2209 C.ar    1  UNL1        0.0179
      7 C          65.3901   84.3179   13.5621 C.ar    1  UNL1        0.0379
      8 C          64.5628   85.1994   14.4501 C.ar    1  UNL1        0.1353
      9 C          63.2583   84.7003   14.9970 C.ar    1  UNL1        0.0172
     10 C          62.7810   83.3198   14.6558 C.ar    1  UNL1        0.0136
     11 C          62.6629   85.7881   15.8410 C.3     1  UNL1        0.0826
     12 C          63.5995   86.9595   15.8157 C.3     1  UNL1        0.2456
     13 O          64.7737   86.5956   14.9561 O.3     1  UNL1       -0.4699
     14 C          62.9807   80.6496   11.9911 C.2     1  UNL1        0.4055
     15 O          63.3076   81.6220   10.8967 O.2     1  UNL1       -0.2261
     16 N          63.1311   81.0578   13.4266 N.am    1  UNL1       -0.2499
     17 H          62.9165   80.4196   14.1449 H       1  UNL1        0.1582
     18 C          62.7399   78.7116   10.2775 C.3     1  UNL1        0.2574
     19 O          62.5035   79.2691   11.6499 O.3     1  UNL1       -0.4304
     20 C          63.9820   89.5433   14.3401 C.3     1  UNL1        0.1139
     21 C          64.9127   90.5912   13.8056 C.ar    1  UNL1       -0.0029
     22 C          66.2373   90.8267   14.4689 C.ar    1  UNL1       -0.0026
     23 C          67.1680   91.8746   13.9344 C.ar    1  UNL1       -0.0003
     24 C          66.7741   92.6871   12.7367 C.ar    1  UNL1       -0.0000
     25 C          65.4494   92.4516   12.0733 C.ar    1  UNL1       -0.0003
     26 C          64.5187   91.4037   12.6078 C.ar    1  UNL1       -0.0026
     27 C          63.4446   88.4814   13.4272 C.3     1  UNL1        0.0968
     28 N          62.4784   88.8461   12.3393 N.3     1  UNL1       -0.2689
     29 C          62.4295   88.2455   10.9657 C.3     1  UNL1        0.0748
     30 C          61.3124   88.9037   10.2115 C.3     1  UNL1        0.0480
     31 C          60.6709   89.9111   11.1189 C.3     1  UNL1        0.1278
     32 O          59.5122   90.7983   10.7722 O.3     1  UNL1       -0.3830
     33 C          61.3915   89.8756   12.4341 C.3     1  UNL1        0.1017
     34 H          59.2922   91.3558   11.5349 H       1  UNL1        0.2104
@<TRIPOS>BOND
     1    18    19    1
     2    19    14    1
     3    14    15    2
     4    14    16   am
     5    16     5    1
     6     5     6   ar
     7     6     7   ar
     8     7     8   ar
     9     8     9   ar
    10     9    10   ar
    11     9    11    1
    12    11    12    1
    13    12     1    1
    14     1     2    2
    15     1     3   am
    16     3     4    1
    17     3    20    1
    18    20    27    1
    19    27    28    1
    20    28    29    1
    21    29    30    1
    22    30    31    1
    23    31    32    1
    24    31    33    1
    25    20    21    1
    26    21    22   ar
    27    22    23   ar
    28    23    24   ar
    29    24    25   ar
    30    25    26   ar
    31    12    13    1
    32    10     5   ar
    33    33    28    1
    34    26    21   ar
    35    13     8    1
    36    16    17    1
    37    32    34    1
@<TRIPOS>MOLECULE
*****
 34 37 0 0 0
SMALL
GASTEIGER

@<TRIPOS>ATOM
      1 C          63.3123   88.1165   16.5660 C.2     1  UNL1        0.2665
      2 O          62.7975   88.0724   17.9741 O.2     1  UNL1       -0.2710
      3 N          63.5929   89.4364   15.9110 N.am    1  UNL1       -0.2714
      4 C          63.3587   90.7123   16.6642 C.3     1  UNL1        0.1153
      5 C          63.6256   82.4314   13.5350 C.ar    1  UNL1        0.0531
      6 C          64.9997   82.9036   13.1626 C.ar    1  UNL1        0.0179
      7 C          65.4839   84.2446   13.6287 C.ar    1  UNL1        0.0379
      8 C          64.5940   85.1134   14.4672 C.ar    1  UNL1        0.1353
      9 C          63.2199   84.6412   14.8397 C.ar    1  UNL1        0.0172
     10 C          62.7357   83.3002   14.3736 C.ar    1  UNL1        0.0136
     11 C          62.5725   85.7087   15.6713 C.3     1  UNL1        0.0826
     12 C          63.5465   86.8406   15.8127 C.3     1  UNL1        0.2456
     13 O          64.7959   86.4727   15.0685 O.3     1  UNL1       -0.4699
     14 C          63.0978   80.7768   11.6028 C.2     1  UNL1        0.4055
     15 O          63.5386   81.8042   10.6026 O.2     1  UNL1       -0.2261
     16 N          63.1413   81.0904   13.0689 N.am    1  UNL1       -0.2499
     17 H          62.8521   80.4161   13.7254 H       1  UNL1        0.1582
     18 C          62.7569   79.0462    9.6952 C.3     1  UNL1        0.2574
     19 O          62.6136   79.4358   11.1367 O.3     1  UNL1       -0.4304
     20 C          64.1077   89.4805   14.5027 C.3     1  UNL1        0.1139
     21 C          63.1914   89.1609   13.3589 C.ar    1  UNL1       -0.0029
     22 C          63.3808   87.8947   12.5774 C.ar    1  UNL1       -0.0026
     23 C          62.4645   87.5752   11.4336 C.ar    1  UNL1       -0.0003
     24 C          61.3588   88.5218   11.0713 C.ar    1  UNL1       -0.0000
     25 C          61.1694   89.7881   11.8528 C.ar    1  UNL1       -0.0003
     26 C          62.0857   90.1077   12.9966 C.ar    1  UNL1       -0.0026
     27 C          65.5387   89.8441   14.2383 C.3     1  UNL1        0.0968
     28 N          65.9249   91.2814   14.0501 N.3     1  UNL1       -0.2689
     29 C          66.7021   92.1198   15.0210 C.3     1  UNL1        0.0748
     30 C          66.8593   93.4890   14.4289 C.3     1  UNL1        0.0480
     31 C          66.1791   93.4968   13.0921 C.3     1  UNL1        0.1278
     32 O          66.0917   94.6640   12.1540 O.3     1  UNL1       -0.3830
     33 C          65.6015   92.1323   12.8579 C.3     1  UNL1        0.1017
     34 H          65.5989   94.4044   11.3598 H       1  UNL1        0.2104
@<TRIPOS>BOND
     1    18    19    1
     2    19    14    1
     3    14    15    2
     4    14    16   am
     5    16     5    1
     6     5     6   ar
     7     6     7   ar
     8     7     8   ar
     9     8     9   ar
    10     9    10   ar
    11     9    11    1
    12    11    12    1
    13    12     1    1
    14     1     2    2
    15     1     3   am
    16     3     4    1
    17     3    20    1
    18    20    27    1
    19    27    28    1
    20    28    29    1
    21    29    30    1
    22    30    31    1
    23    31    32    1
    24    31    33    1
    25    20    21    1
    26    21    22   ar
    27    22    23   ar
    28    23    24   ar
    29    24    25   ar
    30    25    26   ar
    31    12    13    1
    32    10     5   ar
    33    33    28    1
    34    26    21   ar
    35    13     8    1
    36    16    17    1
    37    32    34    1
