@<TRIPOS>MOLECULE
*****
 22 24 0 0 0
SMALL
GASTEIGER

@<TRIPOS>ATOM
      1 C          64.0999   90.2483   12.7705 C.ar    1  UNL1        0.0296
      2 C          63.9913   88.9339   13.4850 C.ar    1  UNL1        0.0070
      3 C          63.0776   88.0485   12.6905 C.ar    1  UNL1        0.0070
      4 C          62.6215   88.8158   11.4850 C.ar    1  UNL1        0.0295
      5 S          63.2533   90.1754   11.5345 S.2     1  UNL1       -0.0869
      6 C          61.6960   88.3120   10.4174 C.ar    1  UNL1        0.0084
      7 C          61.4641   86.8384   10.2601 C.ar    1  UNL1        0.0037
      8 C          60.5386   86.3346    9.1925 C.ar    1  UNL1        0.0390
      9 C          59.8451   87.3044    8.2823 C.ar    1  UNL1        0.1610
     10 O          58.9196   86.8006    7.2148 O.3     1  UNL1       -0.5034
     11 C          60.0770   88.7781    8.4397 C.ar    1  UNL1        0.1736
     12 F          59.3835   89.7478    7.5294 F       1  UNL1       -0.2010
     13 C          61.0024   89.2818    9.5072 C.ar    1  UNL1        0.0333
     14 H          58.7747   85.8801    7.1165 H       1  UNL1        0.2923
     15 O          66.4726   92.9141   16.5474 O.3     1  UNL1       -0.5055
     16 C          66.0988   92.7614   15.1027 C.ar    1  UNL1        0.1337
     17 C          66.5376   93.7889   14.1018 C.ar    1  UNL1        0.0366
     18 C          66.1639   93.6361   12.6572 C.ar    1  UNL1        0.0031
     19 C          65.3513   92.4560   12.2134 C.ar    1  UNL1        0.0007
     20 C          64.9125   91.4286   13.2143 C.ar    1  UNL1        0.0090
     21 C          65.2863   91.5813   14.6589 C.ar    1  UNL1        0.0371
     22 H          66.9801   93.6513   16.8246 H       1  UNL1        0.2922
@<TRIPOS>BOND
     1    15    16    1
     2    16    17   ar
     3    17    18   ar
     4    18    19   ar
     5    19    20   ar
     6    20     1    1
     7     1     2   ar
     8     2     3   ar
     9     3     4   ar
    10     4     6    1
    11     6     7   ar
    12     7     8   ar
    13     8     9   ar
    14     9    10    1
    15     9    11   ar
    16    11    12    1
    17    11    13   ar
    18     4     5   ar
    19    20    21   ar
    20    21    16   ar
    21     5     1   ar
    22    13     6   ar
    23    15    22    1
    24    10    14    1
@<TRIPOS>MOLECULE
*****
 22 24 0 0 0
SMALL
GASTEIGER

@<TRIPOS>ATOM
      1 C          62.3992   89.6186   10.2686 C.ar    1  UNL1        0.0296
      2 C          62.8015   90.8904    9.5824 C.ar    1  UNL1        0.0070
      3 C          63.5820   91.7178   10.5603 C.ar    1  UNL1        0.0070
      4 C          63.6619   90.9574   11.8508 C.ar    1  UNL1        0.0295
      5 S          62.9309   89.6601   11.6705 S.2     1  UNL1       -0.0869
      6 C          64.3518   91.4142   13.1020 C.ar    1  UNL1        0.0084
      7 C          63.8894   90.9145   14.4386 C.ar    1  UNL1        0.0037
      8 C          64.5793   91.3713   15.6898 C.ar    1  UNL1        0.0390
      9 C          65.7315   92.3278   15.6043 C.ar    1  UNL1        0.1610
     10 O          66.4214   92.7846   16.8555 O.3     1  UNL1       -0.5034
     11 C          66.1939   92.8276   14.2677 C.ar    1  UNL1        0.1736
     12 F          67.3462   93.7841   14.1823 F       1  UNL1       -0.2010
     13 C          65.5041   92.3708   13.0166 C.ar    1  UNL1        0.0333
     14 H          66.1325   92.4724   17.6904 H       1  UNL1        0.2923
     15 O          58.4001   87.9992    7.3728 O.3     1  UNL1       -0.5055
     16 C          59.6050   87.6919    8.2118 C.ar    1  UNL1        0.1337
     17 C          60.0153   86.2676    8.4417 C.ar    1  UNL1        0.0366
     18 C          61.2201   85.9602    9.2807 C.ar    1  UNL1        0.0031
     19 C          62.0148   87.0772    9.8896 C.ar    1  UNL1        0.0007
     20 C          61.6045   88.5015    9.6596 C.ar    1  UNL1        0.0090
     21 C          60.3996   88.8089    8.8207 C.ar    1  UNL1        0.0371
     22 H          57.9037   87.3015    6.9925 H       1  UNL1        0.2922
@<TRIPOS>BOND
     1    15    16    1
     2    16    17   ar
     3    17    18   ar
     4    18    19   ar
     5    19    20   ar
     6    20     1    1
     7     1     2   ar
     8     2     3   ar
     9     3     4   ar
    10     4     6    1
    11     6     7   ar
    12     7     8   ar
    13     8     9   ar
    14     9    10    1
    15     9    11   ar
    16    11    12    1
    17    11    13   ar
    18     4     5   ar
    19    20    21   ar
    20    21    16   ar
    21     5     1   ar
    22    13     6   ar
    23    15    22    1
    24    10    14    1
@<TRIPOS>MOLECULE
*****
 22 24 0 0 0
SMALL
GASTEIGER

@<TRIPOS>ATOM
      1 C          63.9491   90.9384   11.6546 C.ar    1  UNL1        0.0296
      2 C          63.8285   89.8608   12.6911 C.ar    1  UNL1        0.0070
      3 C          62.8815   88.8206   12.1704 C.ar    1  UNL1        0.0070
      4 C          62.4168   89.2554   10.8120 C.ar    1  UNL1        0.0295
      5 S          63.0767   90.5642   10.4933 S.2     1  UNL1       -0.0869
      6 C          61.4603   88.5118    9.9276 C.ar    1  UNL1        0.0084
      7 C          61.3590   87.0181   10.0210 C.ar    1  UNL1        0.0037
      8 C          60.4024   86.2745    9.1366 C.ar    1  UNL1        0.0390
      9 C          59.5472   87.0246    8.1589 C.ar    1  UNL1        0.1610
     10 O          58.5907   86.2810    7.2745 O.3     1  UNL1       -0.5034
     11 C          59.6486   88.5184    8.0655 C.ar    1  UNL1        0.1736
     12 F          58.7933   89.2684    7.0877 F       1  UNL1       -0.2010
     13 C          60.6051   89.2618    8.9498 C.ar    1  UNL1        0.0333
     14 H          58.5274   85.3480    7.3329 H       1  UNL1        0.2923
     15 O          65.9038   95.2512    9.5148 O.3     1  UNL1       -0.5055
     16 C          65.7712   94.3298   10.6909 C.ar    1  UNL1        0.1337
     17 C          66.4834   94.6432   11.9733 C.ar    1  UNL1        0.0366
     18 C          66.3509   93.7217   13.1494 C.ar    1  UNL1        0.0031
     19 C          65.5061   92.4868   13.0432 C.ar    1  UNL1        0.0007
     20 C          64.7939   92.1734   11.7609 C.ar    1  UNL1        0.0090
     21 C          64.9265   93.0948   10.5847 C.ar    1  UNL1        0.0371
     22 H          66.4315   96.0227    9.5812 H       1  UNL1        0.2922
@<TRIPOS>BOND
     1    15    16    1
     2    16    17   ar
     3    17    18   ar
     4    18    19   ar
     5    19    20   ar
     6    20     1    1
     7     1     2   ar
     8     2     3   ar
     9     3     4   ar
    10     4     6    1
    11     6     7   ar
    12     7     8   ar
    13     8     9   ar
    14     9    10    1
    15     9    11   ar
    16    11    12    1
    17    11    13   ar
    18     4     5   ar
    19    20    21   ar
    20    21    16   ar
    21     5     1   ar
    22    13     6   ar
    23    15    22    1
    24    10    14    1
@<TRIPOS>MOLECULE
*****
 22 24 0 0 0
SMALL
GASTEIGER

@<TRIPOS>ATOM
      1 C          63.7607   90.9821   12.1809 C.ar    1  UNL1        0.0296
      2 C          63.9041   91.7583   10.9055 C.ar    1  UNL1        0.0070
      3 C          63.1740   91.0155    9.8261 C.ar    1  UNL1        0.0070
      4 C          62.5794   89.7800   10.4345 C.ar    1  UNL1        0.0295
      5 S          62.9420   89.7594   11.8899 S.2     1  UNL1       -0.0869
      6 C          61.7651   88.7466    9.7140 C.ar    1  UNL1        0.0084
      7 C          62.1559   87.3002    9.7854 C.ar    1  UNL1        0.0037
      8 C          61.3417   86.2668    9.0649 C.ar    1  UNL1        0.0390
      9 C          60.1365   86.6799    8.2731 C.ar    1  UNL1        0.1610
     10 O          59.3223   85.6465    7.5526 O.3     1  UNL1       -0.5034
     11 C          59.7456   88.1264    8.2017 C.ar    1  UNL1        0.1736
     12 F          58.5405   88.5394    7.4099 F       1  UNL1       -0.2010
     13 C          60.5599   89.1596    8.9222 C.ar    1  UNL1        0.0333
     14 H          59.5664   84.7430    7.5972 H       1  UNL1        0.2923
     15 O          67.3481   93.4835   14.9869 O.3     1  UNL1       -0.5055
     16 C          66.1289   92.6126   14.9165 C.ar    1  UNL1        0.1337
     17 C          65.4842   92.1214   16.1786 C.ar    1  UNL1        0.0366
     18 C          64.2650   91.2504   16.1082 C.ar    1  UNL1        0.0031
     19 C          63.6905   90.8707   14.7757 C.ar    1  UNL1        0.0007
     20 C          64.3352   91.3618   13.5136 C.ar    1  UNL1        0.0090
     21 C          65.5544   92.2328   13.5839 C.ar    1  UNL1        0.0371
     22 H          67.7070   93.7207   15.8193 H       1  UNL1        0.2922
@<TRIPOS>BOND
     1    15    16    1
     2    16    17   ar
     3    17    18   ar
     4    18    19   ar
     5    19    20   ar
     6    20     1    1
     7     1     2   ar
     8     2     3   ar
     9     3     4   ar
    10     4     6    1
    11     6     7   ar
    12     7     8   ar
    13     8     9   ar
    14     9    10    1
    15     9    11   ar
    16    11    12    1
    17    11    13   ar
    18     4     5   ar
    19    20    21   ar
    20    21    16   ar
    21     5     1   ar
    22    13     6   ar
    23    15    22    1
    24    10    14    1
@<TRIPOS>MOLECULE
*****
 22 24 0 0 0
SMALL
GASTEIGER

@<TRIPOS>ATOM
      1 C          64.8097   91.5713   12.5232 C.ar    1  UNL1        0.0296
      2 C          64.7741   92.3299   11.2297 C.ar    1  UNL1        0.0070
      3 C          63.7775   91.6631   10.3285 C.ar    1  UNL1        0.0070
      4 C          63.1971   90.4923   11.0651 C.ar    1  UNL1        0.0295
      5 S          63.8351   90.4356   12.4215 S.2     1  UNL1       -0.0869
      6 C          62.1608   89.5447   10.5379 C.ar    1  UNL1        0.0084
      7 C          61.1336   90.0267    9.5569 C.ar    1  UNL1        0.0037
      8 C          60.0972   89.0790    9.0297 C.ar    1  UNL1        0.0390
      9 C          60.0882   87.6494    9.4834 C.ar    1  UNL1        0.1610
     10 O          59.0519   86.7017    8.9562 O.3     1  UNL1       -0.5034
     11 C          61.1155   87.1673   10.4645 C.ar    1  UNL1        0.1736
     12 F          61.1064   85.7376   10.9182 F       1  UNL1       -0.2010
     13 C          62.1517   88.1150   10.9916 C.ar    1  UNL1        0.0333
     14 H          58.4102   87.0029    8.3434 H       1  UNL1        0.2923
     15 O          69.4900   92.5506   14.5570 O.3     1  UNL1       -0.5055
     16 C          68.0092   92.3817   14.7270 C.ar    1  UNL1        0.1337
     17 C          67.3879   92.5336   16.0837 C.ar    1  UNL1        0.0366
     18 C          65.9071   92.3647   16.2537 C.ar    1  UNL1        0.0031
     19 C          65.0477   92.0439   15.0669 C.ar    1  UNL1        0.0007
     20 C          65.6691   91.8920   13.7101 C.ar    1  UNL1        0.0090
     21 C          67.1498   92.0610   13.5402 C.ar    1  UNL1        0.0371
     22 H          70.0268   92.7510   15.2984 H       1  UNL1        0.2922
@<TRIPOS>BOND
     1    15    16    1
     2    16    17   ar
     3    17    18   ar
     4    18    19   ar
     5    19    20   ar
     6    20     1    1
     7     1     2   ar
     8     2     3   ar
     9     3     4   ar
    10     4     6    1
    11     6     7   ar
    12     7     8   ar
    13     8     9   ar
    14     9    10    1
    15     9    11   ar
    16    11    12    1
    17    11    13   ar
    18     4     5   ar
    19    20    21   ar
    20    21    16   ar
    21     5     1   ar
    22    13     6   ar
    23    15    22    1
    24    10    14    1
@<TRIPOS>MOLECULE
*****
 22 24 0 0 0
SMALL
GASTEIGER

@<TRIPOS>ATOM
      1 C          63.8933   83.9023   14.1426 C.ar    1  UNL1        0.0296
      2 C          65.3741   84.1363   14.1915 C.ar    1  UNL1        0.0070
      3 C          65.6053   85.5557   14.6180 C.ar    1  UNL1        0.0070
      4 C          64.2672   86.1989   14.8327 C.ar    1  UNL1        0.0295
      5 S          63.2092   85.1770   14.5389 S.2     1  UNL1       -0.0869
      6 C          64.0291   87.6153   15.2653 C.ar    1  UNL1        0.0084
      7 C          63.2976   87.8959   16.5444 C.ar    1  UNL1        0.0037
      8 C          63.0594   89.3123   16.9770 C.ar    1  UNL1        0.0390
      9 C          63.5527   90.4480   16.1304 C.ar    1  UNL1        0.1610
     10 O          63.3146   91.8644   16.5630 O.3     1  UNL1       -0.5034
     11 C          64.2843   90.1674   14.8512 C.ar    1  UNL1        0.1736
     12 F          64.7776   91.3032   14.0047 F       1  UNL1       -0.2010
     13 C          64.5224   88.7510   14.4188 C.ar    1  UNL1        0.0333
     14 H          62.8576   92.0397   17.3620 H       1  UNL1        0.2923
     15 O          59.8661   80.6457   14.5624 O.3     1  UNL1       -0.5055
     16 C          61.2020   80.9905   13.9738 C.ar    1  UNL1        0.1337
     17 C          61.8601   80.0519   13.0065 C.ar    1  UNL1        0.0366
     18 C          63.1960   80.3967   12.4178 C.ar    1  UNL1        0.0031
     19 C          63.8737   81.6801   12.7965 C.ar    1  UNL1        0.0007
     20 C          63.2156   82.6187   13.7638 C.ar    1  UNL1        0.0090
     21 C          61.8797   82.2739   14.3525 C.ar    1  UNL1        0.0371
     22 H          59.4427   79.8440   14.3259 H       1  UNL1        0.2922
@<TRIPOS>BOND
     1    15    16    1
     2    16    17   ar
     3    17    18   ar
     4    18    19   ar
     5    19    20   ar
     6    20     1    1
     7     1     2   ar
     8     2     3   ar
     9     3     4   ar
    10     4     6    1
    11     6     7   ar
    12     7     8   ar
    13     8     9   ar
    14     9    10    1
    15     9    11   ar
    16    11    12    1
    17    11    13   ar
    18     4     5   ar
    19    20    21   ar
    20    21    16   ar
    21     5     1   ar
    22    13     6   ar
    23    15    22    1
    24    10    14    1
@<TRIPOS>MOLECULE
*****
 22 24 0 0 0
SMALL
GASTEIGER

@<TRIPOS>ATOM
      1 C          64.1366   89.7785   13.6028 C.ar    1  UNL1        0.0296
      2 C          64.1538   88.2925   13.8065 C.ar    1  UNL1        0.0070
      3 C          63.2844   87.6703   12.7543 C.ar    1  UNL1        0.0070
      4 C          62.7299   88.7719   11.9004 C.ar    1  UNL1        0.0295
      5 S          63.2566   90.0748   12.4248 S.2     1  UNL1       -0.0869
      6 C          61.8101   88.6006   10.7279 C.ar    1  UNL1        0.0084
      7 C          61.0154   89.7675   10.2214 C.ar    1  UNL1        0.0037
      8 C          60.0956   89.5962    9.0489 C.ar    1  UNL1        0.0390
      9 C          59.9706   88.2580    8.3831 C.ar    1  UNL1        0.1610
     10 O          59.0508   88.0867    7.2106 O.3     1  UNL1       -0.5034
     11 C          60.7653   87.0910    8.8896 C.ar    1  UNL1        0.1736
     12 F          60.6402   85.7527    8.2237 F       1  UNL1       -0.2010
     13 C          61.6850   87.2623   10.0620 C.ar    1  UNL1        0.0333
     14 H          58.5543   88.8157    6.8941 H       1  UNL1        0.2923
     15 O          68.2061   92.9363   14.2871 O.3     1  UNL1       -0.5055
     16 C          66.9054   92.3694   14.7738 C.ar    1  UNL1        0.1337
     17 C          66.3388   92.8146   16.0894 C.ar    1  UNL1        0.0366
     18 C          65.0381   92.2477   16.5761 C.ar    1  UNL1        0.0031
     19 C          64.3040   91.2357   15.7473 C.ar    1  UNL1        0.0007
     20 C          64.8707   90.7906   14.4317 C.ar    1  UNL1        0.0090
     21 C          66.1714   91.3574   13.9450 C.ar    1  UNL1        0.0371
     22 H          68.6646   93.5684   14.8049 H       1  UNL1        0.2922
@<TRIPOS>BOND
     1    15    16    1
     2    16    17   ar
     3    17    18   ar
     4    18    19   ar
     5    19    20   ar
     6    20     1    1
     7     1     2   ar
     8     2     3   ar
     9     3     4   ar
    10     4     6    1
    11     6     7   ar
    12     7     8   ar
    13     8     9   ar
    14     9    10    1
    15     9    11   ar
    16    11    12    1
    17    11    13   ar
    18     4     5   ar
    19    20    21   ar
    20    21    16   ar
    21     5     1   ar
    22    13     6   ar
    23    15    22    1
    24    10    14    1
@<TRIPOS>MOLECULE
*****
 22 24 0 0 0
SMALL
GASTEIGER

@<TRIPOS>ATOM
      1 C          63.9287   87.1754   13.9020 C.ar    1  UNL1        0.0296
      2 C          64.3876   86.6485   15.2294 C.ar    1  UNL1        0.0070
      3 C          64.2269   85.1572   15.2169 C.ar    1  UNL1        0.0070
      4 C          63.6686   84.7624   13.8818 C.ar    1  UNL1        0.0295
      5 S          63.4844   86.0097   13.0692 S.2     1  UNL1       -0.0869
      6 C          63.3505   83.3655   13.4373 C.ar    1  UNL1        0.0084
      7 C          62.8666   82.3535   14.4331 C.ar    1  UNL1        0.0037
      8 C          62.5485   80.9566   13.9887 C.ar    1  UNL1        0.0390
      9 C          62.7142   80.5718   12.5485 C.ar    1  UNL1        0.1610
     10 O          62.3961   79.1749   12.1040 O.3     1  UNL1       -0.5034
     11 C          63.1981   81.5838   11.5525 C.ar    1  UNL1        0.1736
     12 F          63.3638   81.1990   10.1123 F       1  UNL1       -0.2010
     13 C          63.5162   82.9806   11.9970 C.ar    1  UNL1        0.0333
     14 H          62.0939   78.5427   12.7261 H       1  UNL1        0.2923
     15 O          65.2489   92.1266   14.7636 O.3     1  UNL1       -0.5055
     16 C          64.5765   91.0908   13.9122 C.ar    1  UNL1        0.1337
     17 C          63.8918   91.4947   12.6402 C.ar    1  UNL1        0.0366
     18 C          63.2194   90.4588   11.7888 C.ar    1  UNL1        0.0031
     19 C          63.2317   89.0191   12.2094 C.ar    1  UNL1        0.0007
     20 C          63.9164   88.6152   13.4814 C.ar    1  UNL1        0.0090
     21 C          64.5888   89.6510   14.3328 C.ar    1  UNL1        0.0371
     22 H          65.2412   93.0260   14.5009 H       1  UNL1        0.2922
@<TRIPOS>BOND
     1    15    16    1
     2    16    17   ar
     3    17    18   ar
     4    18    19   ar
     5    19    20   ar
     6    20     1    1
     7     1     2   ar
     8     2     3   ar
     9     3     4   ar
    10     4     6    1
    11     6     7   ar
    12     7     8   ar
    13     8     9   ar
    14     9    10    1
    15     9    11   ar
    16    11    12    1
    17    11    13   ar
    18     4     5   ar
    19    20    21   ar
    20    21    16   ar
    21     5     1   ar
    22    13     6   ar
    23    15    22    1
    24    10    14    1
@<TRIPOS>MOLECULE
*****
 22 24 0 0 0
SMALL
GASTEIGER

@<TRIPOS>ATOM
      1 C          63.7029   90.9104   12.0885 C.ar    1  UNL1        0.0296
      2 C          63.7941   91.7221   10.8304 C.ar    1  UNL1        0.0070
      3 C          63.0806   90.9743    9.7434 C.ar    1  UNL1        0.0070
      4 C          62.5484   89.7003   10.3297 C.ar    1  UNL1        0.0295
      5 S          62.9330   89.6608   11.7790 S.2     1  UNL1       -0.0869
      6 C          61.7685   88.6501    9.5955 C.ar    1  UNL1        0.0084
      7 C          60.4088   88.9706    9.0492 C.ar    1  UNL1        0.0037
      8 C          59.6289   87.9204    8.3151 C.ar    1  UNL1        0.0390
      9 C          60.2087   86.5499    8.1272 C.ar    1  UNL1        0.1610
     10 O          59.4288   85.4998    7.3931 O.3     1  UNL1       -0.5034
     11 C          61.5685   86.2294    8.6735 C.ar    1  UNL1        0.1736
     12 F          62.1484   84.8588    8.4857 F       1  UNL1       -0.2010
     13 C          62.3483   87.2795    9.4076 C.ar    1  UNL1        0.0333
     14 H          58.5794   85.6999    7.0518 H       1  UNL1        0.2923
     15 O          63.4587   90.8320   17.2783 O.3     1  UNL1       -0.5055
     16 C          64.1581   91.2436   16.0168 C.ar    1  UNL1        0.1337
     17 C          65.4348   92.0277   16.0887 C.ar    1  UNL1        0.0366
     18 C          66.1343   92.4393   14.8272 C.ar    1  UNL1        0.0031
     19 C          65.5570   92.0669   13.4938 C.ar    1  UNL1        0.0007
     20 C          64.2803   91.2828   13.4219 C.ar    1  UNL1        0.0090
     21 C          63.5808   90.8712   14.6834 C.ar    1  UNL1        0.0371
     22 H          63.8193   91.0646   18.1112 H       1  UNL1        0.2922
@<TRIPOS>BOND
     1    15    16    1
     2    16    17   ar
     3    17    18   ar
     4    18    19   ar
     5    19    20   ar
     6    20     1    1
     7     1     2   ar
     8     2     3   ar
     9     3     4   ar
    10     4     6    1
    11     6     7   ar
    12     7     8   ar
    13     8     9   ar
    14     9    10    1
    15     9    11   ar
    16    11    12    1
    17    11    13   ar
    18     4     5   ar
    19    20    21   ar
    20    21    16   ar
    21     5     1   ar
    22    13     6   ar
    23    15    22    1
    24    10    14    1
