@<TRIPOS>MOLECULE
*****
 33 35 0 0 0
SMALL
GASTEIGER

@<TRIPOS>ATOM
      1 C          63.6076   87.1747   16.0331 C.3     1  UNL1        0.1812
      2 O          64.1966   87.2992   14.6593 O.3     1  UNL1       -0.3784
      3 H          64.5772   86.4479   14.3922 H       1  UNL1        0.2106
      4 C          63.0185   87.0501   17.4069 C.3     1  UNL1        0.4197
      5 F          62.4294   86.9256   18.7808 F       1  UNL1       -0.1676
      6 F          63.9184   85.8831   17.6870 F       1  UNL1       -0.1676
      7 F          62.1186   88.2170   17.1269 F       1  UNL1       -0.1676
      8 C          64.0235   85.7342   16.0809 C.3     1  UNL1        0.0398
      9 C          63.6926   84.8197   14.9389 C.3     1  UNL1        0.0212
     10 C          62.2624   84.7751   15.3890 C.3     1  UNL1        0.0044
     11 C          65.1227   84.8643   14.4887 C.3     1  UNL1        0.0044
     12 C          62.9650   85.9644   12.2630 C.3     1  UNL1        0.0307
     13 C          62.9978   84.4776   12.4589 C.ar    1  UNL1       -0.0257
     14 C          62.6669   83.5631   11.3169 C.ar    1  UNL1       -0.0023
     15 C          62.6997   82.0763   11.5128 C.ar    1  UNL1        0.0293
     16 C          63.0635   81.5040   12.8508 C.ar    1  UNL1        0.1398
     17 F          63.0963   80.0172   13.0467 F       1  UNL1       -0.2042
     18 C          63.3945   82.4184   13.9928 C.ar    1  UNL1        0.0250
     19 C          63.3616   83.9053   13.7969 C.ar    1  UNL1       -0.0244
     20 C          63.1916   88.6150   15.9853 C.3     1  UNL1        0.0811
     21 C          63.6963   89.5054   14.8888 C.2     1  UNL1        0.0613
     22 C          64.9098   90.3847   14.9551 C.2     1  UNL1        0.0161
     23 C          65.0396   91.0956   13.6407 C.2     1  UNL1        0.0213
     24 C          66.0433   92.0866   13.1304 C.2     1  UNL1        0.0586
     25 C          65.9138   92.6378   11.7413 C.2     1  UNL1        0.2207
     26 N          64.7805   92.1978   10.8625 N.2     1  UNL1       -0.2313
     27 C          63.7768   91.2068   11.3728 C.3     1  UNL1        0.1739
     28 C          63.9064   90.6556   12.7618 C.2     1  UNL1        0.0834
     29 N          63.0762   89.6728   13.5333 N.2     1  UNL1       -0.2519
     30 O          66.9174   93.6288   11.2310 O.2     1  UNL1       -0.4642
     31 C          67.5098   93.4599    9.8633 C.3     1  UNL1        0.1678
     32 C          68.2940   92.2246    9.5330 C.3     1  UNL1        0.0473
     33 C          67.3179   94.5261    8.8259 C.3     1  UNL1        0.0473
@<TRIPOS>BOND
     1    12    13    1
     2    13    14   ar
     3    14    15   ar
     4    15    16   ar
     5    16    17    1
     6    16    18   ar
     7    18    19   ar
     8    19     9    1
     9     9    10    1
    10     9    11    1
    11     9     8    1
    12     8     1    1
    13     1     2    1
    14     1    20    1
    15    20    21    1
    16    21    22    2
    17    22    23    1
    18    23    24    2
    19    24    25    1
    20    25    30    1
    21    30    31    1
    22    31    32    1
    23    31    33    1
    24    25    26    2
    25    26    27    1
    26    27    28    1
    27    28    29    2
    28     1     4    1
    29     4     5    1
    30     4     6    1
    31     4     7    1
    32    19    13   ar
    33    29    21    1
    34    28    23    1
    35     2     3    1
@<TRIPOS>MOLECULE
*****
 33 35 0 0 0
SMALL
GASTEIGER

@<TRIPOS>ATOM
      1 C          61.8218   87.3931   10.6155 C.3     1  UNL1        0.1812
      2 O          63.0767   87.3833   11.4371 O.3     1  UNL1       -0.3784
      3 H          63.5673   86.5637   11.2683 H       1  UNL1        0.2106
      4 C          60.5669   87.4030    9.7939 C.3     1  UNL1        0.4197
      5 F          59.3119   87.4128    8.9723 F       1  UNL1       -0.1676
      6 F          59.7952   87.9042   10.9786 F       1  UNL1       -0.1676
      7 F          61.3385   86.9018    8.6093 F       1  UNL1       -0.1676
      8 C          62.1827   86.0523   10.0481 C.3     1  UNL1        0.0398
      9 C          62.5446   84.9223   10.9657 C.3     1  UNL1        0.0212
     10 C          61.5586   85.4277   11.9769 C.3     1  UNL1        0.0044
     11 C          63.5307   84.4170    9.9546 C.3     1  UNL1        0.0044
     12 C          63.8749   85.4915   13.5938 C.3     1  UNL1        0.0307
     13 C          63.5717   84.0769   13.1974 C.ar    1  UNL1       -0.0257
     14 C          63.9336   82.9469   14.1151 C.ar    1  UNL1       -0.0023
     15 C          63.6304   81.5324   13.7188 C.ar    1  UNL1        0.0293
     16 C          62.9652   81.2477   12.4048 C.ar    1  UNL1        0.1398
     17 F          62.6620   79.8332   12.0085 F       1  UNL1       -0.2042
     18 C          62.6033   82.3777   11.4871 C.ar    1  UNL1        0.0250
     19 C          62.9066   83.7923   11.8834 C.ar    1  UNL1       -0.0244
     20 C          61.4608   88.7339   11.1829 C.3     1  UNL1        0.0811
     21 C          62.5282   89.7617   11.4159 C.2     1  UNL1        0.0613
     22 C          63.1161   90.6728   10.3793 C.2     1  UNL1        0.0161
     23 C          64.1464   91.5331   11.0490 C.2     1  UNL1        0.0213
     24 C          65.0463   92.6129   10.5255 C.2     1  UNL1        0.0586
     25 C          65.9952   93.3134   11.4525 C.2     1  UNL1        0.2207
     26 N          66.0440   92.9340   12.9029 N.2     1  UNL1       -0.2313
     27 C          65.1440   91.8542   13.4264 C.3     1  UNL1        0.1739
     28 C          64.1952   91.1537   12.4995 C.2     1  UNL1        0.0834
     29 N          63.1951   90.0589   12.7262 N.2     1  UNL1       -0.2519
     30 O          66.8951   94.3932   10.9290 O.2     1  UNL1       -0.4642
     31 C          67.5610   94.2330    9.5945 C.3     1  UNL1        0.1678
     32 C          68.4322   93.0411    9.3292 C.3     1  UNL1        0.0473
     33 C          67.3558   95.2648    8.5252 C.3     1  UNL1        0.0473
@<TRIPOS>BOND
     1    12    13    1
     2    13    14   ar
     3    14    15   ar
     4    15    16   ar
     5    16    17    1
     6    16    18   ar
     7    18    19   ar
     8    19     9    1
     9     9    10    1
    10     9    11    1
    11     9     8    1
    12     8     1    1
    13     1     2    1
    14     1    20    1
    15    20    21    1
    16    21    22    2
    17    22    23    1
    18    23    24    2
    19    24    25    1
    20    25    30    1
    21    30    31    1
    22    31    32    1
    23    31    33    1
    24    25    26    2
    25    26    27    1
    26    27    28    1
    27    28    29    2
    28     1     4    1
    29     4     5    1
    30     4     6    1
    31     4     7    1
    32    19    13   ar
    33    29    21    1
    34    28    23    1
    35     2     3    1
@<TRIPOS>MOLECULE
*****
 33 35 0 0 0
SMALL
GASTEIGER

@<TRIPOS>ATOM
      1 C          63.6090   87.0569   15.8721 C.3     1  UNL1        0.1812
      2 O          64.1010   87.2286   14.4655 O.3     1  UNL1       -0.3784
      3 H          64.3996   86.3725   14.1207 H       1  UNL1        0.2106
      4 C          63.1171   86.8853   17.2786 C.3     1  UNL1        0.4197
      5 F          62.6251   86.7137   18.6853 F       1  UNL1       -0.1676
      6 F          62.3397   88.1630   17.1627 F       1  UNL1       -0.1676
      7 F          63.8943   85.6077   17.3946 F       1  UNL1       -0.1676
      8 C          63.9249   85.5921   15.8039 C.3     1  UNL1        0.0398
      9 C          63.7508   84.8466   14.5139 C.3     1  UNL1        0.0212
     10 C          62.2660   84.8264   14.7259 C.3     1  UNL1        0.0044
     11 C          65.2356   84.8668   14.3019 C.3     1  UNL1        0.0044
     12 C          63.5681   81.8522   14.5248 C.3     1  UNL1        0.0307
     13 C          63.4854   82.6040   13.2294 C.ar    1  UNL1       -0.0257
     14 C          63.3114   81.8585   11.9395 C.ar    1  UNL1       -0.0023
     15 C          63.2287   82.6102   10.6441 C.ar    1  UNL1        0.0293
     16 C          63.3200   84.1074   10.6386 C.ar    1  UNL1        0.1398
     17 F          63.2373   84.8591    9.3432 F       1  UNL1       -0.2042
     18 C          63.4941   84.8529   11.9285 C.ar    1  UNL1        0.0250
     19 C          63.5768   84.1012   13.2240 C.ar    1  UNL1       -0.0244
     20 C          63.2932   88.5217   15.9403 C.3     1  UNL1        0.0811
     21 C          63.7524   89.4397   14.8466 C.2     1  UNL1        0.0613
     22 C          64.9703   90.3147   14.8832 C.2     1  UNL1        0.0161
     23 C          65.0450   91.0597   13.5834 C.2     1  UNL1        0.0213
     24 C          66.0286   92.0620   13.0561 C.2     1  UNL1        0.0586
     25 C          65.8405   92.6497   11.6889 C.2     1  UNL1        0.2207
     26 N          64.6690   92.2351   10.8490 N.2     1  UNL1       -0.2313
     27 C          63.6854   91.2328   11.3762 C.3     1  UNL1        0.1739
     28 C          63.8734   90.6451   12.7434 C.2     1  UNL1        0.0834
     29 N          63.0746   89.6438   13.5241 N.2     1  UNL1       -0.2519
     30 O          66.8241   93.6521   11.1616 O.2     1  UNL1       -0.4642
     31 C          67.5288   93.3991    9.8618 C.3     1  UNL1        0.1678
     32 C          67.5606   94.4644    8.8062 C.3     1  UNL1        0.0473
     33 C          68.2018   92.0810    9.6177 C.3     1  UNL1        0.0473
@<TRIPOS>BOND
     1    12    13    1
     2    13    14   ar
     3    14    15   ar
     4    15    16   ar
     5    16    17    1
     6    16    18   ar
     7    18    19   ar
     8    19     9    1
     9     9    10    1
    10     9    11    1
    11     9     8    1
    12     8     1    1
    13     1     2    1
    14     1    20    1
    15    20    21    1
    16    21    22    2
    17    22    23    1
    18    23    24    2
    19    24    25    1
    20    25    30    1
    21    30    31    1
    22    31    32    1
    23    31    33    1
    24    25    26    2
    25    26    27    1
    26    27    28    1
    27    28    29    2
    28     1     4    1
    29     4     5    1
    30     4     6    1
    31     4     7    1
    32    19    13   ar
    33    29    21    1
    34    28    23    1
    35     2     3    1
@<TRIPOS>MOLECULE
*****
 33 35 0 0 0
SMALL
GASTEIGER

@<TRIPOS>ATOM
      1 C          61.5862   87.3595    9.8819 C.3     1  UNL1        0.1812
      2 O          62.8515   87.5538   10.6636 O.3     1  UNL1       -0.3784
      3 H          63.3467   86.7202   10.6898 H       1  UNL1        0.2106
      4 C          60.3209   87.1651    9.1001 C.3     1  UNL1        0.4197
      5 F          59.0555   86.9707    8.3183 F       1  UNL1       -0.1676
      6 F          59.5443   87.8466   10.1876 F       1  UNL1       -0.1676
      7 F          61.0974   86.4837    8.0127 F       1  UNL1       -0.1676
      8 C          61.9510   85.9233    9.6483 C.3     1  UNL1        0.0398
      9 C          62.5100   85.0995   10.7703 C.3     1  UNL1        0.0212
     10 C          63.5580   84.5529    9.8468 C.3     1  UNL1        0.0044
     11 C          61.4621   85.6462   11.6938 C.3     1  UNL1        0.0044
     12 C          62.8782   82.1427   10.4212 C.3     1  UNL1        0.0307
     13 C          63.2531   82.7974   11.7177 C.ar    1  UNL1       -0.0257
     14 C          63.8122   81.9735   12.8397 C.ar    1  UNL1       -0.0023
     15 C          64.1871   82.6281   14.1362 C.ar    1  UNL1        0.0293
     16 C          64.0030   84.1065   14.3108 C.ar    1  UNL1        0.1398
     17 F          64.3779   84.7611   15.6073 F       1  UNL1       -0.2042
     18 C          63.4440   84.9304   13.1888 C.ar    1  UNL1        0.0250
     19 C          63.0691   84.2757   11.8923 C.ar    1  UNL1       -0.0244
     20 C          61.2213   88.7955   10.1154 C.3     1  UNL1        0.0811
     21 C          62.2296   89.7401   10.6995 C.2     1  UNL1        0.0613
     22 C          63.0687   90.7188    9.9326 C.2     1  UNL1        0.0161
     23 C          63.9335   91.4554   10.9121 C.2     1  UNL1        0.0213
     24 C          64.9590   92.5351   10.7318 C.2     1  UNL1        0.0586
     25 C          65.6800   93.0914   11.9239 C.2     1  UNL1        0.2207
     26 N          65.3754   92.5679   13.2961 N.2     1  UNL1       -0.2313
     27 C          64.3499   91.4882   13.4764 C.3     1  UNL1        0.1739
     28 C          63.6290   90.9319   12.2845 C.2     1  UNL1        0.0834
     29 N          62.5758   89.8718   12.1530 N.2     1  UNL1       -0.2519
     30 O          66.7055   94.1711   11.7435 O.2     1  UNL1       -0.4642
     31 C          66.6188   95.0991   10.5682 C.3     1  UNL1        0.1678
     32 C          65.6120   96.2110   10.5632 C.3     1  UNL1        0.0473
     33 C          67.5388   94.9152    9.3979 C.3     1  UNL1        0.0473
@<TRIPOS>BOND
     1    12    13    1
     2    13    14   ar
     3    14    15   ar
     4    15    16   ar
     5    16    17    1
     6    16    18   ar
     7    18    19   ar
     8    19     9    1
     9     9    10    1
    10     9    11    1
    11     9     8    1
    12     8     1    1
    13     1     2    1
    14     1    20    1
    15    20    21    1
    16    21    22    2
    17    22    23    1
    18    23    24    2
    19    24    25    1
    20    25    30    1
    21    30    31    1
    22    31    32    1
    23    31    33    1
    24    25    26    2
    25    26    27    1
    26    27    28    1
    27    28    29    2
    28     1     4    1
    29     4     5    1
    30     4     6    1
    31     4     7    1
    32    19    13   ar
    33    29    21    1
    34    28    23    1
    35     2     3    1
@<TRIPOS>MOLECULE
*****
 33 35 0 0 0
SMALL
GASTEIGER

@<TRIPOS>ATOM
      1 C          61.4994   87.5555    9.4886 C.3     1  UNL1        0.1812
      2 O          62.9089   87.7968    9.9414 O.3     1  UNL1       -0.3784
      3 H          63.4139   86.9709    9.8805 H       1  UNL1        0.2106
      4 C          60.0899   87.3141    9.0358 C.3     1  UNL1        0.4197
      5 F          58.6803   87.0729    8.5831 F       1  UNL1       -0.1676
      6 F          60.5991   86.4950    7.8870 F       1  UNL1       -0.1676
      7 F          59.5806   88.1332   10.1846 F       1  UNL1       -0.1676
      8 C          61.8294   86.1155    9.2285 C.3     1  UNL1        0.0398
      9 C          62.3180   85.2441   10.3475 C.3     1  UNL1        0.0212
     10 C          63.3327   84.6320    9.4277 C.3     1  UNL1        0.0044
     11 C          61.3034   85.8561   11.2672 C.3     1  UNL1        0.0044
     12 C          63.4546   86.4871   12.8300 C.3     1  UNL1        0.0307
     13 C          63.3749   84.9942   12.7076 C.ar    1  UNL1       -0.0257
     14 C          63.8635   84.1228   13.8265 C.ar    1  UNL1       -0.0023
     15 C          63.7838   82.6299   13.7042 C.ar    1  UNL1        0.0293
     16 C          63.2155   82.0084   12.4629 C.ar    1  UNL1        0.1398
     17 F          63.1358   80.5156   12.3406 F       1  UNL1       -0.2042
     18 C          62.7269   82.8798   11.3440 C.ar    1  UNL1        0.0250
     19 C          62.8066   84.3727   11.4664 C.ar    1  UNL1       -0.0244
     20 C          61.1693   88.9954    9.7487 C.3     1  UNL1        0.0811
     21 C          62.1775   89.8884   10.4090 C.2     1  UNL1        0.0613
     22 C          62.5202   89.9028   11.8693 C.2     1  UNL1        0.0161
     23 C          63.5745   90.9472   12.0878 C.2     1  UNL1        0.0213
     24 C          64.2931   91.4051   13.3222 C.2     1  UNL1        0.0586
     25 C          65.3207   92.4941   13.2314 C.2     1  UNL1        0.2207
     26 N          65.6296   93.1252   11.9062 N.2     1  UNL1       -0.2313
     27 C          64.9110   92.6673   10.6717 C.3     1  UNL1        0.1739
     28 C          63.8834   91.5783   10.7625 C.2     1  UNL1        0.0834
     29 N          63.0200   90.9239    9.7249 N.2     1  UNL1       -0.2519
     30 O          66.0394   92.9520   14.4659 O.2     1  UNL1       -0.4642
     31 C          67.3884   92.3881   14.8010 C.3     1  UNL1        0.1678
     32 C          68.2452   91.8000   13.7193 C.3     1  UNL1        0.0473
     33 C          67.8806   92.4124   16.2177 C.3     1  UNL1        0.0473
@<TRIPOS>BOND
     1    12    13    1
     2    13    14   ar
     3    14    15   ar
     4    15    16   ar
     5    16    17    1
     6    16    18   ar
     7    18    19   ar
     8    19     9    1
     9     9    10    1
    10     9    11    1
    11     9     8    1
    12     8     1    1
    13     1     2    1
    14     1    20    1
    15    20    21    1
    16    21    22    2
    17    22    23    1
    18    23    24    2
    19    24    25    1
    20    25    30    1
    21    30    31    1
    22    31    32    1
    23    31    33    1
    24    25    26    2
    25    26    27    1
    26    27    28    1
    27    28    29    2
    28     1     4    1
    29     4     5    1
    30     4     6    1
    31     4     7    1
    32    19    13   ar
    33    29    21    1
    34    28    23    1
    35     2     3    1
@<TRIPOS>MOLECULE
*****
 33 35 0 0 0
SMALL
GASTEIGER

@<TRIPOS>ATOM
      1 C          61.9608   87.1276    9.8870 C.3     1  UNL1        0.1812
      2 O          63.0959   87.2274   10.8625 O.3     1  UNL1       -0.3784
      3 H          63.5817   86.3881   10.8802 H       1  UNL1        0.2106
      4 C          60.8258   87.0278    8.9114 C.3     1  UNL1        0.4197
      5 F          59.6907   86.9280    7.9359 F       1  UNL1       -0.1676
      6 F          61.7094   86.2767    7.9601 F       1  UNL1       -0.1676
      7 F          59.9422   87.7789    9.8627 F       1  UNL1       -0.1676
      8 C          62.3564   85.7155    9.5711 C.3     1  UNL1        0.0398
      9 C          62.5969   84.7376   10.6828 C.3     1  UNL1        0.0212
     10 C          63.6945   84.0995    9.8840 C.3     1  UNL1        0.0044
     11 C          61.4992   85.3757   11.4816 C.3     1  UNL1        0.0044
     12 C          63.6471   85.6973   13.3240 C.3     1  UNL1        0.0307
     13 C          63.3624   84.2394   13.1150 C.ar    1  UNL1       -0.0257
     14 C          63.6029   83.2615   14.2266 C.ar    1  UNL1       -0.0023
     15 C          63.3183   81.8037   14.0177 C.ar    1  UNL1        0.0293
     16 C          62.7931   81.3237   12.6971 C.ar    1  UNL1        0.1398
     17 F          62.5084   79.8659   12.4881 F       1  UNL1       -0.2042
     18 C          62.5526   82.3017   11.5854 C.ar    1  UNL1        0.0250
     19 C          62.8373   83.7596   11.7944 C.ar    1  UNL1       -0.0244
     20 C          61.5653   88.5396   10.2027 C.3     1  UNL1        0.0811
     21 C          62.3392   89.3258   11.2189 C.2     1  UNL1        0.0613
     22 C          63.3175   90.4245   10.9253 C.2     1  UNL1        0.0161
     23 C          63.8538   90.9292   12.2321 C.2     1  UNL1        0.0213
     24 C          64.8475   92.0034   12.5616 C.2     1  UNL1        0.0586
     25 C          65.1943   92.2910   13.9923 C.2     1  UNL1        0.2207
     26 N          64.5475   91.5044   15.0936 N.2     1  UNL1       -0.2313
     27 C          63.5538   90.4301   14.7641 C.3     1  UNL1        0.1739
     28 C          63.2069   90.1425   13.3335 C.2     1  UNL1        0.0834
     29 N          62.2709   89.1516   12.7072 N.2     1  UNL1       -0.2519
     30 O          66.1881   93.3653   14.3218 O.2     1  UNL1       -0.4642
     31 C          67.6022   92.9996   14.6632 C.3     1  UNL1        0.1678
     32 C          68.3189   93.7231   15.7646 C.3     1  UNL1        0.0473
     33 C          68.2997   91.9106   13.9033 C.3     1  UNL1        0.0473
@<TRIPOS>BOND
     1    12    13    1
     2    13    14   ar
     3    14    15   ar
     4    15    16   ar
     5    16    17    1
     6    16    18   ar
     7    18    19   ar
     8    19     9    1
     9     9    10    1
    10     9    11    1
    11     9     8    1
    12     8     1    1
    13     1     2    1
    14     1    20    1
    15    20    21    1
    16    21    22    2
    17    22    23    1
    18    23    24    2
    19    24    25    1
    20    25    30    1
    21    30    31    1
    22    31    32    1
    23    31    33    1
    24    25    26    2
    25    26    27    1
    26    27    28    1
    27    28    29    2
    28     1     4    1
    29     4     5    1
    30     4     6    1
    31     4     7    1
    32    19    13   ar
    33    29    21    1
    34    28    23    1
    35     2     3    1
@<TRIPOS>MOLECULE
*****
 33 35 0 0 0
SMALL
GASTEIGER

@<TRIPOS>ATOM
      1 C          61.4998   87.3300    9.6201 C.3     1  UNL1        0.1812
      2 O          62.8763   87.5611   10.1694 O.3     1  UNL1       -0.3784
      3 H          63.3241   86.7089   10.2884 H       1  UNL1        0.2106
      4 C          60.1233   87.0990    9.0707 C.3     1  UNL1        0.4197
      5 F          58.7467   86.8679    8.5213 F       1  UNL1       -0.1676
      6 F          59.5399   87.9045   10.1937 F       1  UNL1       -0.1676
      7 F          60.7066   86.2935    7.9479 F       1  UNL1       -0.1676
      8 C          61.7476   85.8506    9.6211 C.3     1  UNL1        0.0398
      9 C          62.4155   85.2029   10.7977 C.3     1  UNL1        0.0212
     10 C          63.4105   84.5588    9.8784 C.3     1  UNL1        0.0044
     11 C          61.4204   85.8469   11.7170 C.3     1  UNL1        0.0044
     12 C          62.6723   82.2164   10.9201 C.3     1  UNL1        0.0307
     13 C          63.2117   83.0619   12.0356 C.ar    1  UNL1       -0.0257
     14 C          63.8796   82.4142   13.2122 C.ar    1  UNL1       -0.0023
     15 C          64.4190   83.2597   14.3276 C.ar    1  UNL1        0.0293
     16 C          64.2906   84.7530   14.2664 C.ar    1  UNL1        0.1398
     17 F          64.8300   85.5985   15.3818 F       1  UNL1       -0.2042
     18 C          63.6227   85.4007   13.0898 C.ar    1  UNL1        0.0250
     19 C          63.0833   84.5551   11.9743 C.ar    1  UNL1       -0.0244
     20 C          61.2519   88.8094    9.6190 C.3     1  UNL1        0.0811
     21 C          62.2069   89.7303   10.3188 C.2     1  UNL1        0.0613
     22 C          62.5054   89.7399   11.7888 C.2     1  UNL1        0.0161
     23 C          63.5142   90.8188   12.0500 C.2     1  UNL1        0.0213
     24 C          64.1788   91.2877   13.3103 C.2     1  UNL1        0.0586
     25 C          65.1684   92.4140   13.2621 C.2     1  UNL1        0.2207
     26 N          65.4934   93.0713   11.9535 N.2     1  UNL1       -0.2313
     27 C          64.8287   92.6024   10.6932 C.3     1  UNL1        0.1739
     28 C          63.8392   91.4762   10.7414 C.2     1  UNL1        0.0834
     29 N          63.0312   90.8034    9.6715 N.2     1  UNL1       -0.2519
     30 O          65.8330   92.8829   14.5224 O.2     1  UNL1       -0.4642
     31 C          67.3013   92.6532   14.7262 C.3     1  UNL1        0.1678
     32 C          68.0707   91.8102   13.7529 C.3     1  UNL1        0.0473
     33 C          68.0001   93.2666   15.9032 C.3     1  UNL1        0.0473
@<TRIPOS>BOND
     1    12    13    1
     2    13    14   ar
     3    14    15   ar
     4    15    16   ar
     5    16    17    1
     6    16    18   ar
     7    18    19   ar
     8    19     9    1
     9     9    10    1
    10     9    11    1
    11     9     8    1
    12     8     1    1
    13     1     2    1
    14     1    20    1
    15    20    21    1
    16    21    22    2
    17    22    23    1
    18    23    24    2
    19    24    25    1
    20    25    30    1
    21    30    31    1
    22    31    32    1
    23    31    33    1
    24    25    26    2
    25    26    27    1
    26    27    28    1
    27    28    29    2
    28     1     4    1
    29     4     5    1
    30     4     6    1
    31     4     7    1
    32    19    13   ar
    33    29    21    1
    34    28    23    1
    35     2     3    1
@<TRIPOS>MOLECULE
*****
 33 35 0 0 0
SMALL
GASTEIGER

@<TRIPOS>ATOM
      1 C          60.3942   88.5424   10.6250 C.3     1  UNL1        0.1812
      2 O          60.0463   87.9767   11.9700 O.3     1  UNL1       -0.3784
      3 H          59.8862   87.0235   11.8883 H       1  UNL1        0.2106
      4 C          60.7421   89.1080    9.2801 C.3     1  UNL1        0.4197
      5 F          61.0901   89.6737    7.9350 F       1  UNL1       -0.1676
      6 F          59.4034   89.7819    9.2171 F       1  UNL1       -0.1676
      7 F          62.0807   88.4342    9.3430 F       1  UNL1       -0.1676
      8 C          60.2547   87.1789   10.0154 C.3     1  UNL1        0.0398
      9 C          61.2926   86.1289   10.2809 C.3     1  UNL1        0.0212
     10 C          60.9878   85.4930    8.9570 C.3     1  UNL1        0.0044
     11 C          61.5974   86.7649   11.6047 C.3     1  UNL1        0.0044
     12 C          63.1192   85.2340    8.0757 C.3     1  UNL1        0.0307
     13 C          63.2437   84.6315    9.4438 C.ar    1  UNL1       -0.0257
     14 C          64.2816   83.5816    9.7092 C.ar    1  UNL1       -0.0023
     15 C          64.4062   82.9791   11.0772 C.ar    1  UNL1        0.0293
     16 C          63.4929   83.4266   12.1798 C.ar    1  UNL1        0.1398
     17 F          63.6174   82.8241   13.5478 F       1  UNL1       -0.2042
     18 C          62.4550   84.4765   11.9144 C.ar    1  UNL1        0.0250
     19 C          62.3304   85.0790   10.5463 C.ar    1  UNL1       -0.0244
     20 C          60.5337   89.9058   11.2345 C.3     1  UNL1        0.0811
     21 C          61.8964   90.4908   11.4597 C.2     1  UNL1        0.0613
     22 C          62.7079   91.2493   10.4515 C.2     1  UNL1        0.0161
     23 C          64.0000   91.6473   11.1012 C.2     1  UNL1        0.0213
     24 C          65.1866   92.4101   10.5914 C.2     1  UNL1        0.0586
     25 C          66.3604   92.6605   11.4913 C.2     1  UNL1        0.2207
     26 N          66.3474   92.1481   12.9009 N.2     1  UNL1       -0.2313
     27 C          65.1608   91.3852   13.4108 C.3     1  UNL1        0.1739
     28 C          63.9871   91.1348   12.5110 C.2     1  UNL1        0.0834
     29 N          62.6870   90.4200   12.7325 N.2     1  UNL1       -0.2519
     30 O          67.5470   93.4234   10.9814 O.2     1  UNL1       -0.4642
     31 C          67.8758   93.4085    9.5179 C.3     1  UNL1        0.1678
     32 C          67.4880   94.5689    8.6502 C.3     1  UNL1        0.0473
     33 C          68.5924   92.2331    8.9221 C.3     1  UNL1        0.0473
@<TRIPOS>BOND
     1    12    13    1
     2    13    14   ar
     3    14    15   ar
     4    15    16   ar
     5    16    17    1
     6    16    18   ar
     7    18    19   ar
     8    19     9    1
     9     9    10    1
    10     9    11    1
    11     9     8    1
    12     8     1    1
    13     1     2    1
    14     1    20    1
    15    20    21    1
    16    21    22    2
    17    22    23    1
    18    23    24    2
    19    24    25    1
    20    25    30    1
    21    30    31    1
    22    31    32    1
    23    31    33    1
    24    25    26    2
    25    26    27    1
    26    27    28    1
    27    28    29    2
    28     1     4    1
    29     4     5    1
    30     4     6    1
    31     4     7    1
    32    19    13   ar
    33    29    21    1
    34    28    23    1
    35     2     3    1
@<TRIPOS>MOLECULE
*****
 33 35 0 0 0
SMALL
GASTEIGER

@<TRIPOS>ATOM
      1 C          62.9891   89.5868   12.3403 C.3     1  UNL1        0.1812
      2 O          63.6518   88.8828   13.4871 O.3     1  UNL1       -0.3784
      3 H          63.8850   89.5290   14.1719 H       1  UNL1        0.2106
      4 C          62.3264   90.2908   11.1935 C.3     1  UNL1        0.4197
      5 F          61.6636   90.9948   10.0466 F       1  UNL1       -0.1676
      6 F          63.4870   89.9427   10.3091 F       1  UNL1       -0.1676
      7 F          61.1659   90.6388   12.0778 F       1  UNL1       -0.1676
      8 C          63.1373   90.8956   13.0580 C.3     1  UNL1        0.0398
      9 C          64.4665   91.2913   13.6295 C.3     1  UNL1        0.0212
     10 C          64.1696   90.4994   14.8684 C.3     1  UNL1        0.0044
     11 C          64.7634   92.0832   12.3907 C.3     1  UNL1        0.0044
     12 C          64.6425   92.3289   16.4389 C.3     1  UNL1        0.0307
     13 C          65.8838   92.2057   15.6056 C.ar    1  UNL1       -0.0257
     14 C          67.2130   92.6014   16.1771 C.ar    1  UNL1       -0.0023
     15 C          68.4542   92.4782   15.3440 C.ar    1  UNL1        0.0293
     16 C          68.3662   91.9594   13.9393 C.ar    1  UNL1        0.1398
     17 F          69.6074   91.8362   13.1061 F       1  UNL1       -0.2042
     18 C          67.0370   91.5637   13.3678 C.ar    1  UNL1        0.0250
     19 C          65.7957   91.6869   14.2010 C.ar    1  UNL1       -0.0244
     20 C          62.8409   88.2781   11.6225 C.3     1  UNL1        0.0811
     21 C          63.0613   86.9899   12.3586 C.2     1  UNL1        0.0613
     22 C          62.6036   85.6317   11.9157 C.2     1  UNL1        0.0161
     23 C          63.0376   84.6360   12.9502 C.2     1  UNL1        0.0213
     24 C          62.8655   83.1491   13.0465 C.2     1  UNL1        0.0586
     25 C          63.4194   82.4047   14.2252 C.2     1  UNL1        0.2207
     26 N          64.1453   83.1474   15.3076 N.2     1  UNL1       -0.2313
     27 C          64.3174   84.6344   15.2112 C.3     1  UNL1        0.1739
     28 C          63.7635   85.3787   14.0326 C.2     1  UNL1        0.0834
     29 N          63.7782   86.8335   13.6670 N.2     1  UNL1       -0.2519
     30 O          63.2473   80.9178   14.3216 O.2     1  UNL1       -0.4642
     31 C          62.1370   80.2412   13.5734 C.3     1  UNL1        0.1678
     32 C          60.7206   80.3785   14.0475 C.3     1  UNL1        0.0473
     33 C          62.4433   79.4274   12.3512 C.3     1  UNL1        0.0473
@<TRIPOS>BOND
     1    12    13    1
     2    13    14   ar
     3    14    15   ar
     4    15    16   ar
     5    16    17    1
     6    16    18   ar
     7    18    19   ar
     8    19     9    1
     9     9    10    1
    10     9    11    1
    11     9     8    1
    12     8     1    1
    13     1     2    1
    14     1    20    1
    15    20    21    1
    16    21    22    2
    17    22    23    1
    18    23    24    2
    19    24    25    1
    20    25    30    1
    21    30    31    1
    22    31    32    1
    23    31    33    1
    24    25    26    2
    25    26    27    1
    26    27    28    1
    27    28    29    2
    28     1     4    1
    29     4     5    1
    30     4     6    1
    31     4     7    1
    32    19    13   ar
    33    29    21    1
    34    28    23    1
    35     2     3    1
