@<TRIPOS>MOLECULE
*****
 32 34 0 0 0
SMALL
GASTEIGER

@<TRIPOS>ATOM
      1 N          63.7015   88.6459   13.1549 N.am    1  UNL1       -0.2836
      2 C          63.5099   89.3421   14.4697 C.2     1  UNL1        0.2305
      3 O          63.1163   88.5553   15.6846 O.2     1  UNL1       -0.2744
      4 H          63.9599   89.1623   12.3575 H       1  UNL1        0.1549
      5 C          63.0956   84.1969   12.8554 C.ar    1  UNL1        0.0002
      6 C          63.9665   84.7641   13.9369 C.ar    1  UNL1        0.0013
      7 C          64.1685   86.2470   14.0368 C.ar    1  UNL1        0.0147
      8 C          63.4995   87.1629   13.0551 C.ar    1  UNL1        0.0503
      9 C          62.6286   86.5958   11.9735 C.ar    1  UNL1        0.0147
     10 C          62.4266   85.1127   11.8737 C.ar    1  UNL1        0.0013
     11 C          62.9866   79.8518   10.0079 C.3     1  UNL1        0.0521
     12 C          62.8391   80.5414   11.3318 C.ar    1  UNL1        0.0594
     13 C          63.0411   82.0243   11.4317 C.ar    1  UNL1        0.0147
     14 C          62.8936   82.7139   12.7556 C.ar    1  UNL1        0.0027
     15 C          62.5442   81.9205   13.9796 C.ar    1  UNL1        0.0207
     16 C          62.3422   80.4375   13.8798 C.ar    1  UNL1        0.0984
     17 N          62.4897   79.7480   12.5559 N.ar    1  UNL1       -0.2481
     18 C          63.7119   90.8250   14.5695 C.3     1  UNL1        0.1116
     19 C          65.0070   91.4372   14.1247 C.ar    1  UNL1       -0.0132
     20 C          66.1271   91.6182   15.1058 C.ar    1  UNL1        0.0001
     21 C          67.4222   92.2304   14.6610 C.ar    1  UNL1        0.0711
     22 C          67.5973   92.6615   13.2351 C.ar    1  UNL1        0.0077
     23 C          66.4772   92.4805   12.2538 C.ar    1  UNL1        0.0711
     24 C          65.1821   91.8684   12.6987 C.ar    1  UNL1        0.0001
     25 C          68.5423   92.4114   15.6422 C.3     1  UNL1        0.4186
     26 F          69.6623   92.5924   16.6234 F       1  UNL1       -0.1659
     27 F          67.5657   92.3082   16.7760 F       1  UNL1       -0.1659
     28 F          69.5188   92.5146   14.5083 F       1  UNL1       -0.1659
     29 C          66.6523   92.9117   10.8279 C.3     1  UNL1        0.4186
     30 F          66.8274   93.3428    9.4019 F       1  UNL1       -0.1659
     31 F          65.3627   93.6744   10.9002 F       1  UNL1       -0.1659
     32 F          67.9418   92.1489   10.7556 F       1  UNL1       -0.1659
@<TRIPOS>BOND
     1    11    12    1
     2    12    13   ar
     3    13    14   ar
     4    14     5    1
     5     5     6   ar
     6     6     7   ar
     7     7     8   ar
     8     8     1    1
     9     1     2   am
    10     2     3    2
    11     2    18    1
    12    18    19    1
    13    19    20   ar
    14    20    21   ar
    15    21    25    1
    16    25    26    1
    17    25    27    1
    18    25    28    1
    19    21    22   ar
    20    22    23   ar
    21    23    29    1
    22    29    30    1
    23    29    31    1
    24    29    32    1
    25    23    24   ar
    26     8     9   ar
    27     9    10   ar
    28    14    15   ar
    29    15    16   ar
    30    16    17   ar
    31    17    12   ar
    32    10     5   ar
    33    24    19   ar
    34     1     4    1
@<TRIPOS>MOLECULE
*****
 32 34 0 0 0
SMALL
GASTEIGER

@<TRIPOS>ATOM
      1 N          63.7110   88.6707   13.1785 N.am    1  UNL1       -0.2836
      2 C          63.5297   89.3564   14.5002 C.2     1  UNL1        0.2305
      3 O          63.1468   88.5599   15.7122 O.2     1  UNL1       -0.2744
      4 H          63.9623   89.1935   12.3831 H       1  UNL1        0.1549
      5 C          63.1061   84.2237   12.8493 C.ar    1  UNL1        0.0002
      6 C          62.4397   85.1456   11.8716 C.ar    1  UNL1        0.0013
      7 C          62.6413   86.6279   11.9813 C.ar    1  UNL1        0.0147
      8 C          63.5094   87.1884   13.0688 C.ar    1  UNL1        0.0503
      9 C          64.1758   86.2664   14.0465 C.ar    1  UNL1        0.0147
     10 C          63.9741   84.7840   13.9367 C.ar    1  UNL1        0.0013
     11 C          62.9996   79.8975    9.9730 C.3     1  UNL1        0.0521
     12 C          62.8512   80.5783   11.3014 C.ar    1  UNL1        0.0594
     13 C          63.0528   82.0606   11.4112 C.ar    1  UNL1        0.0147
     14 C          62.9044   82.7413   12.7396 C.ar    1  UNL1        0.0027
     15 C          62.5544   81.9398   13.9581 C.ar    1  UNL1        0.0207
     16 C          62.3527   80.4575   13.8483 C.ar    1  UNL1        0.0984
     17 N          62.5011   79.7767   12.5200 N.ar    1  UNL1       -0.2481
     18 C          63.7314   90.8387   14.6099 C.3     1  UNL1        0.1116
     19 C          65.0203   91.4561   14.1544 C.ar    1  UNL1       -0.0132
     20 C          65.1802   91.8921   12.7281 C.ar    1  UNL1        0.0001
     21 C          66.4692   92.5094   12.2726 C.ar    1  UNL1        0.0711
     22 C          67.5982   92.6908   13.2433 C.ar    1  UNL1        0.0077
     23 C          67.4383   92.2548   14.6697 C.ar    1  UNL1        0.0711
     24 C          66.1494   91.6375   15.1252 C.ar    1  UNL1        0.0001
     25 C          66.6291   92.9454   10.8463 C.3     1  UNL1        0.4186
     26 F          66.7890   93.3814    9.4199 F       1  UNL1       -0.1659
     27 F          65.3910   93.7839   10.9638 F       1  UNL1       -0.1659
     28 F          67.8672   92.1068   10.7288 F       1  UNL1       -0.1659
     29 C          68.5673   92.4362   15.6404 C.3     1  UNL1        0.4186
     30 F          69.6963   92.6176   16.6112 F       1  UNL1       -0.1659
     31 F          69.5422   92.4668   14.5009 F       1  UNL1       -0.1659
     32 F          67.5924   92.4055   16.7800 F       1  UNL1       -0.1659
@<TRIPOS>BOND
     1    11    12    1
     2    12    13   ar
     3    13    14   ar
     4    14     5    1
     5     5     6   ar
     6     6     7   ar
     7     7     8   ar
     8     8     1    1
     9     1     2   am
    10     2     3    2
    11     2    18    1
    12    18    19    1
    13    19    20   ar
    14    20    21   ar
    15    21    25    1
    16    25    26    1
    17    25    27    1
    18    25    28    1
    19    21    22   ar
    20    22    23   ar
    21    23    29    1
    22    29    30    1
    23    29    31    1
    24    29    32    1
    25    23    24   ar
    26     8     9   ar
    27     9    10   ar
    28    14    15   ar
    29    15    16   ar
    30    16    17   ar
    31    17    12   ar
    32    10     5   ar
    33    24    19   ar
    34     1     4    1
@<TRIPOS>MOLECULE
*****
 32 34 0 0 0
SMALL
GASTEIGER

@<TRIPOS>ATOM
      1 N          63.4523   88.6390   12.8767 N.am    1  UNL1       -0.2836
      2 C          62.9402   89.4936   11.7553 C.2     1  UNL1        0.2305
      3 O          62.2840   88.8566   10.5664 O.2     1  UNL1       -0.2744
      4 H          63.8830   89.0571   13.6571 H       1  UNL1        0.1549
      5 C          63.0198   84.1645   12.6742 C.ar    1  UNL1        0.0002
      6 C          63.8194   84.7915   13.7775 C.ar    1  UNL1        0.0013
      7 C          63.9636   86.2830   13.8451 C.ar    1  UNL1        0.0147
      8 C          63.3081   87.1475   12.8092 C.ar    1  UNL1        0.0503
      9 C          62.5085   86.5205   11.7058 C.ar    1  UNL1        0.0147
     10 C          62.3644   85.0289   11.6383 C.ar    1  UNL1        0.0013
     11 C          62.9583   79.7704    9.9014 C.3     1  UNL1        0.0521
     12 C          62.8449   80.4759   11.2203 C.ar    1  UNL1        0.0594
     13 C          62.9890   81.9674   11.2878 C.ar    1  UNL1        0.0147
     14 C          62.8757   82.6729   12.6067 C.ar    1  UNL1        0.0027
     15 C          62.6182   81.8869   13.8580 C.ar    1  UNL1        0.0207
     16 C          62.4741   80.3954   13.7905 C.ar    1  UNL1        0.0984
     17 N          62.5874   79.6899   12.4716 N.ar    1  UNL1       -0.2481
     18 C          63.0844   90.9851   11.8228 C.3     1  UNL1        0.1116
     19 C          64.4421   91.6006   11.9894 C.ar    1  UNL1       -0.0132
     20 C          65.0531   91.7109   13.3549 C.ar    1  UNL1        0.0001
     21 C          66.4108   92.3264   13.5215 C.ar    1  UNL1        0.0711
     22 C          67.1575   92.8316   12.3227 C.ar    1  UNL1        0.0077
     23 C          66.5465   92.7213   10.9572 C.ar    1  UNL1        0.0711
     24 C          65.1887   92.1058   10.7905 C.ar    1  UNL1        0.0001
     25 C          67.0219   92.4366   14.8869 C.3     1  UNL1        0.4186
     26 F          67.6330   92.5470   16.2524 F       1  UNL1       -0.1659
     27 F          66.9094   93.9307   14.8166 F       1  UNL1       -0.1659
     28 F          67.1344   90.9425   14.9572 F       1  UNL1       -0.1659
     29 C          67.2931   93.2266    9.7584 C.3     1  UNL1        0.4186
     30 F          68.0398   93.7318    8.5596 F       1  UNL1       -0.1659
     31 F          66.6642   94.5767    9.9356 F       1  UNL1       -0.1659
     32 F          67.9221   91.8764    9.5811 F       1  UNL1       -0.1659
@<TRIPOS>BOND
     1    11    12    1
     2    12    13   ar
     3    13    14   ar
     4    14     5    1
     5     5     6   ar
     6     6     7   ar
     7     7     8   ar
     8     8     1    1
     9     1     2   am
    10     2     3    2
    11     2    18    1
    12    18    19    1
    13    19    20   ar
    14    20    21   ar
    15    21    25    1
    16    25    26    1
    17    25    27    1
    18    25    28    1
    19    21    22   ar
    20    22    23   ar
    21    23    29    1
    22    29    30    1
    23    29    31    1
    24    29    32    1
    25    23    24   ar
    26     8     9   ar
    27     9    10   ar
    28    14    15   ar
    29    15    16   ar
    30    16    17   ar
    31    17    12   ar
    32    10     5   ar
    33    24    19   ar
    34     1     4    1
@<TRIPOS>MOLECULE
*****
 32 34 0 0 0
SMALL
GASTEIGER

@<TRIPOS>ATOM
      1 N          61.9088   85.6324    9.8858 N.am    1  UNL1       -0.2836
      2 C          63.0391   84.8387    9.3006 C.2     1  UNL1        0.2305
      3 O          63.4332   85.0392    7.8672 O.2     1  UNL1       -0.2744
      4 H          61.6502   85.5008   10.8265 H       1  UNL1        0.1549
      5 C          59.7000   88.6152    7.3414 C.ar    1  UNL1        0.0002
      6 C          60.5323   89.0859    8.4971 C.ar    1  UNL1        0.0013
      7 C          61.2686   88.0917    9.3452 C.ar    1  UNL1        0.0147
      8 C          61.1726   86.6266    9.0377 C.ar    1  UNL1        0.0503
      9 C          60.3403   86.1559    7.8819 C.ar    1  UNL1        0.0147
     10 C          59.6040   87.1503    7.0338 C.ar    1  UNL1        0.0013
     11 C          59.7540   92.6138    4.0236 C.3     1  UNL1        0.0521
     12 C          58.9908   91.6088    4.8344 C.ar    1  UNL1        0.0594
     13 C          59.7270   90.6145    5.6825 C.ar    1  UNL1        0.0147
     14 C          58.9637   89.6095    6.4933 C.ar    1  UNL1        0.0027
     15 C          57.4643   89.5988    6.4560 C.ar    1  UNL1        0.0207
     16 C          56.7281   90.5931    5.6079 C.ar    1  UNL1        0.0984
     17 N          57.4913   91.5981    4.7971 N.ar    1  UNL1       -0.2481
     18 C          63.7754   83.8445   10.1487 C.3     1  UNL1        0.1116
     19 C          63.3214   83.5742   11.5526 C.ar    1  UNL1       -0.0132
     20 C          62.6305   82.2843   11.8822 C.ar    1  UNL1        0.0001
     21 C          62.1764   82.0141   13.2860 C.ar    1  UNL1        0.0711
     22 C          62.4133   83.0338   14.3603 C.ar    1  UNL1        0.0077
     23 C          63.1042   84.3238   14.0307 C.ar    1  UNL1        0.0711
     24 C          63.5582   84.5940   12.6268 C.ar    1  UNL1        0.0001
     25 C          61.4855   80.7242   13.6156 C.3     1  UNL1        0.4186
     26 F          60.7946   79.4341   13.9452 F       1  UNL1       -0.1659
     27 F          62.3913   79.9966   12.6669 F       1  UNL1       -0.1659
     28 F          60.5797   81.4517   14.5644 F       1  UNL1       -0.1659
     29 C          63.3410   85.3435   15.1049 C.3     1  UNL1        0.4186
     30 F          63.5779   86.3632   16.1792 F       1  UNL1       -0.1659
     31 F          64.2825   86.0798   14.1985 F       1  UNL1       -0.1659
     32 F          62.3996   84.6073   16.0113 F       1  UNL1       -0.1659
@<TRIPOS>BOND
     1    11    12    1
     2    12    13   ar
     3    13    14   ar
     4    14     5    1
     5     5     6   ar
     6     6     7   ar
     7     7     8   ar
     8     8     1    1
     9     1     2   am
    10     2     3    2
    11     2    18    1
    12    18    19    1
    13    19    20   ar
    14    20    21   ar
    15    21    25    1
    16    25    26    1
    17    25    27    1
    18    25    28    1
    19    21    22   ar
    20    22    23   ar
    21    23    29    1
    22    29    30    1
    23    29    31    1
    24    29    32    1
    25    23    24   ar
    26     8     9   ar
    27     9    10   ar
    28    14    15   ar
    29    15    16   ar
    30    16    17   ar
    31    17    12   ar
    32    10     5   ar
    33    24    19   ar
    34     1     4    1
@<TRIPOS>MOLECULE
*****
 32 34 0 0 0
SMALL
GASTEIGER

@<TRIPOS>ATOM
      1 N          61.8776   85.5925    9.8947 N.am    1  UNL1       -0.2836
      2 C          63.0553   84.8511    9.3351 C.2     1  UNL1        0.2305
      3 O          63.5039   85.1090    7.9272 O.2     1  UNL1       -0.2744
      4 H          61.5831   85.4233   10.8188 H       1  UNL1        0.1549
      5 C          59.6901   88.5906    7.3498 C.ar    1  UNL1        0.0002
      6 C          59.5671   87.1250    7.0551 C.ar    1  UNL1        0.0013
      7 C          60.2962   86.1256    7.9034 C.ar    1  UNL1        0.0147
      8 C          61.1484   86.5919    9.0464 C.ar    1  UNL1        0.0503
      9 C          61.2714   88.0575    9.3411 C.ar    1  UNL1        0.0147
     10 C          60.5422   89.0569    8.4927 C.ar    1  UNL1        0.0013
     11 C          59.7723   92.5950    4.0395 C.3     1  UNL1        0.0521
     12 C          59.0020   91.5921    4.8463 C.ar    1  UNL1        0.0594
     13 C          59.7311   90.5928    5.6946 C.ar    1  UNL1        0.0147
     14 C          58.9609   89.5899    6.5014 C.ar    1  UNL1        0.0027
     15 C          57.4615   89.5864    6.4599 C.ar    1  UNL1        0.0207
     16 C          56.7323   90.5857    5.6116 C.ar    1  UNL1        0.0984
     17 N          57.5026   91.5886    4.8048 N.ar    1  UNL1       -0.2481
     18 C          63.7845   83.8518   10.1834 C.3     1  UNL1        0.1116
     19 C          63.3214   83.5764   11.5833 C.ar    1  UNL1       -0.0132
     20 C          63.5420   84.5966   12.6605 C.ar    1  UNL1        0.0001
     21 C          63.0789   84.3213   14.0604 C.ar    1  UNL1        0.0711
     22 C          62.3952   83.0258   14.3831 C.ar    1  UNL1        0.0077
     23 C          62.1745   82.0055   13.3058 C.ar    1  UNL1        0.0711
     24 C          62.6376   82.2809   11.9059 C.ar    1  UNL1        0.0001
     25 C          63.2995   85.3414   15.1377 C.3     1  UNL1        0.4186
     26 F          63.5202   86.3617   16.2150 F       1  UNL1       -0.1659
     27 F          64.2162   86.1040   14.2278 F       1  UNL1       -0.1659
     28 F          62.3829   84.5788   16.0477 F       1  UNL1       -0.1659
     29 C          61.4908   80.7100   13.6284 C.3     1  UNL1        0.4186
     30 F          60.8070   79.4145   13.9511 F       1  UNL1       -0.1659
     31 F          62.4237   79.9871   12.7028 F       1  UNL1       -0.1659
     32 F          60.5578   81.4330   14.5541 F       1  UNL1       -0.1659
@<TRIPOS>BOND
     1    11    12    1
     2    12    13   ar
     3    13    14   ar
     4    14     5    1
     5     5     6   ar
     6     6     7   ar
     7     7     8   ar
     8     8     1    1
     9     1     2   am
    10     2     3    2
    11     2    18    1
    12    18    19    1
    13    19    20   ar
    14    20    21   ar
    15    21    25    1
    16    25    26    1
    17    25    27    1
    18    25    28    1
    19    21    22   ar
    20    22    23   ar
    21    23    29    1
    22    29    30    1
    23    29    31    1
    24    29    32    1
    25    23    24   ar
    26     8     9   ar
    27     9    10   ar
    28    14    15   ar
    29    15    16   ar
    30    16    17   ar
    31    17    12   ar
    32    10     5   ar
    33    24    19   ar
    34     1     4    1
@<TRIPOS>MOLECULE
*****
 32 34 0 0 0
SMALL
GASTEIGER

@<TRIPOS>ATOM
      1 N          62.7612   88.7963   12.0726 N.am    1  UNL1       -0.2836
      2 C          62.2197   87.9822   10.9350 C.2     1  UNL1        0.2305
      3 O          62.3992   88.4544    9.5227 O.2     1  UNL1       -0.2744
      4 H          62.6434   88.4864   12.9996 H       1  UNL1        0.1549
      5 C          64.9242   92.6553   11.2481 C.ar    1  UNL1        0.0002
      6 C          64.0529   92.0433   10.1915 C.ar    1  UNL1        0.0013
      7 C          63.3320   90.7570   10.4663 C.ar    1  UNL1        0.0147
      8 C          63.4822   90.0826   11.7978 C.ar    1  UNL1        0.0503
      9 C          64.3534   90.6946   12.8544 C.ar    1  UNL1        0.0147
     10 C          65.0744   91.9810   12.5795 C.ar    1  UNL1        0.0013
     11 C          67.3626   95.8277    7.9330 C.3     1  UNL1        0.0521
     12 C          66.8644   95.5278    9.3157 C.ar    1  UNL1        0.0594
     13 C          66.1434   94.2415    9.5906 C.ar    1  UNL1        0.0147
     14 C          65.6452   93.9417   10.9733 C.ar    1  UNL1        0.0027
     15 C          65.8679   94.9281   12.0811 C.ar    1  UNL1        0.0207
     16 C          66.5889   96.2144   11.8062 C.ar    1  UNL1        0.0984
     17 N          67.0871   96.5142   10.4235 N.ar    1  UNL1       -0.2481
     18 C          61.4987   86.6959   11.2098 C.3     1  UNL1        0.1116
     19 C          62.2379   85.5341   11.8046 C.ar    1  UNL1       -0.0132
     20 C          62.3953   84.2648   11.0210 C.ar    1  UNL1        0.0001
     21 C          63.1345   83.1029   11.6158 C.ar    1  UNL1        0.0711
     22 C          63.7162   83.2104   12.9942 C.ar    1  UNL1        0.0077
     23 C          63.5588   84.4797   13.7779 C.ar    1  UNL1        0.0711
     24 C          62.8196   85.6416   13.1831 C.ar    1  UNL1        0.0001
     25 C          63.2919   81.8337   10.8322 C.3     1  UNL1        0.4186
     26 F          63.4493   80.5643   10.0485 F       1  UNL1       -0.1659
     27 F          64.1221   82.5629    9.8178 F       1  UNL1       -0.1659
     28 F          62.4617   81.1045   11.8466 F       1  UNL1       -0.1659
     29 C          64.1405   84.5872   15.1562 C.3     1  UNL1        0.4186
     30 F          64.7223   84.6946   16.5346 F       1  UNL1       -0.1659
     31 F          64.3846   86.0511   14.9391 F       1  UNL1       -0.1659
     32 F          63.8965   83.1232   15.3733 F       1  UNL1       -0.1659
@<TRIPOS>BOND
     1    11    12    1
     2    12    13   ar
     3    13    14   ar
     4    14     5    1
     5     5     6   ar
     6     6     7   ar
     7     7     8   ar
     8     8     1    1
     9     1     2   am
    10     2     3    2
    11     2    18    1
    12    18    19    1
    13    19    20   ar
    14    20    21   ar
    15    21    25    1
    16    25    26    1
    17    25    27    1
    18    25    28    1
    19    21    22   ar
    20    22    23   ar
    21    23    29    1
    22    29    30    1
    23    29    31    1
    24    29    32    1
    25    23    24   ar
    26     8     9   ar
    27     9    10   ar
    28    14    15   ar
    29    15    16   ar
    30    16    17   ar
    31    17    12   ar
    32    10     5   ar
    33    24    19   ar
    34     1     4    1
@<TRIPOS>MOLECULE
*****
 32 34 0 0 0
SMALL
GASTEIGER

@<TRIPOS>ATOM
      1 N          62.7950   88.8640   12.0680 N.am    1  UNL1       -0.2836
      2 C          62.2307   88.0628   10.9324 C.2     1  UNL1        0.2305
      3 O          62.3838   88.5500    9.5220 O.2     1  UNL1       -0.2744
      4 H          62.6945   88.5443   12.9937 H       1  UNL1        0.1549
      5 C          64.9470   92.7292   11.2438 C.ar    1  UNL1        0.0002
      6 C          64.0445   92.1364   10.2026 C.ar    1  UNL1        0.0013
      7 C          63.3271   90.8481   10.4773 C.ar    1  UNL1        0.0147
      8 C          63.5123   90.1524   11.7933 C.ar    1  UNL1        0.0503
      9 C          64.4148   90.7451   12.8345 C.ar    1  UNL1        0.0147
     10 C          65.1322   92.0336   12.5597 C.ar    1  UNL1        0.0013
     11 C          67.4380   95.8778    7.9452 C.3     1  UNL1        0.0521
     12 C          66.9098   95.5919    9.3197 C.ar    1  UNL1        0.0594
     13 C          66.1925   94.3035    9.5945 C.ar    1  UNL1        0.0147
     14 C          65.6643   94.0176   10.9690 C.ar    1  UNL1        0.0027
     15 C          65.8535   95.0200   12.0687 C.ar    1  UNL1        0.0207
     16 C          66.5708   96.3084   11.7939 C.ar    1  UNL1        0.0984
     17 N          67.0990   96.5943   10.4193 N.ar    1  UNL1       -0.2481
     18 C          61.5134   86.7745   11.2071 C.3     1  UNL1        0.1116
     19 C          62.2572   85.6127   11.7962 C.ar    1  UNL1       -0.0132
     20 C          62.8487   85.7200   13.1705 C.ar    1  UNL1        0.0001
     21 C          63.5925   84.5582   13.7596 C.ar    1  UNL1        0.0711
     22 C          63.7449   83.2893   12.9745 C.ar    1  UNL1        0.0077
     23 C          63.1534   83.1820   11.6001 C.ar    1  UNL1        0.0711
     24 C          62.4095   84.3437   11.0110 C.ar    1  UNL1        0.0001
     25 C          64.1840   84.6654   15.1339 C.3     1  UNL1        0.4186
     26 F          64.7755   84.7726   16.5082 F       1  UNL1       -0.1659
     27 F          63.6874   83.2870   15.4551 F       1  UNL1       -0.1659
     28 F          64.6806   86.0439   14.8126 F       1  UNL1       -0.1659
     29 C          63.3058   81.9130   10.8150 C.3     1  UNL1        0.4186
     30 F          63.4581   80.6441   10.0299 F       1  UNL1       -0.1659
     31 F          64.0980   82.6506    9.7766 F       1  UNL1       -0.1659
     32 F          62.5136   81.1754   11.8534 F       1  UNL1       -0.1659
@<TRIPOS>BOND
     1    11    12    1
     2    12    13   ar
     3    13    14   ar
     4    14     5    1
     5     5     6   ar
     6     6     7   ar
     7     7     8   ar
     8     8     1    1
     9     1     2   am
    10     2     3    2
    11     2    18    1
    12    18    19    1
    13    19    20   ar
    14    20    21   ar
    15    21    25    1
    16    25    26    1
    17    25    27    1
    18    25    28    1
    19    21    22   ar
    20    22    23   ar
    21    23    29    1
    22    29    30    1
    23    29    31    1
    24    29    32    1
    25    23    24   ar
    26     8     9   ar
    27     9    10   ar
    28    14    15   ar
    29    15    16   ar
    30    16    17   ar
    31    17    12   ar
    32    10     5   ar
    33    24    19   ar
    34     1     4    1
@<TRIPOS>MOLECULE
*****
 32 34 0 0 0
SMALL
GASTEIGER

@<TRIPOS>ATOM
      1 N          63.6802   87.4727   14.3251 N.am    1  UNL1       -0.2836
      2 C          63.4175   87.9185   15.7330 C.2     1  UNL1        0.2305
      3 O          62.9639   86.9256   16.7617 O.2     1  UNL1       -0.2744
      4 H          63.9780   88.1243   13.6498 H       1  UNL1        0.1549
      5 C          63.1076   83.1566   13.1876 C.ar    1  UNL1        0.0002
      6 C          62.8777   84.2367   12.1724 C.ar    1  UNL1        0.0013
      7 C          63.0685   85.6753   12.5515 C.ar    1  UNL1        0.0147
      8 C          63.4894   86.0340   13.9459 C.ar    1  UNL1        0.0503
      9 C          63.7193   84.9540   14.9611 C.ar    1  UNL1        0.0147
     10 C          63.5284   83.5152   14.5819 C.ar    1  UNL1        0.0013
     11 C          62.9802   79.4376    9.5609 C.3     1  UNL1        0.0521
     12 C          62.8530   79.8585   10.9950 C.ar    1  UNL1        0.0594
     13 C          63.0439   81.2971   11.3742 C.ar    1  UNL1        0.0147
     14 C          62.9167   81.7179   12.8084 C.ar    1  UNL1        0.0027
     15 C          62.5987   80.7001   13.8633 C.ar    1  UNL1        0.0207
     16 C          62.4078   79.2615   13.4840 C.ar    1  UNL1        0.0984
     17 N          62.5350   78.8406   12.0499 N.ar    1  UNL1       -0.2481
     18 C          63.6084   89.3571   16.1121 C.3     1  UNL1        0.1116
     19 C          64.1809   90.3248   15.1192 C.ar    1  UNL1       -0.0132
     20 C          63.6417   90.3711   13.7203 C.ar    1  UNL1        0.0001
     21 C          64.2142   91.3388   12.7275 C.ar    1  UNL1        0.0711
     22 C          65.3261   92.2601   13.1335 C.ar    1  UNL1        0.0077
     23 C          65.8654   92.2138   14.5325 C.ar    1  UNL1        0.0711
     24 C          65.2928   91.2461   15.5254 C.ar    1  UNL1        0.0001
     25 C          63.6750   91.3852   11.3286 C.3     1  UNL1        0.4186
     26 F          63.1357   91.4315    9.9296 F       1  UNL1       -0.1659
     27 F          64.9203   92.0855   10.8717 F       1  UNL1       -0.1659
     28 F          62.4297   90.6848   11.7854 F       1  UNL1       -0.1659
     29 C          66.9772   93.1351   14.9386 C.3     1  UNL1        0.4186
     30 F          68.0891   94.0565   15.3446 F       1  UNL1       -0.1659
     31 F          67.3335   93.3410   13.4961 F       1  UNL1       -0.1659
     32 F          66.6210   92.9293   16.3810 F       1  UNL1       -0.1659
@<TRIPOS>BOND
     1    11    12    1
     2    12    13   ar
     3    13    14   ar
     4    14     5    1
     5     5     6   ar
     6     6     7   ar
     7     7     8   ar
     8     8     1    1
     9     1     2   am
    10     2     3    2
    11     2    18    1
    12    18    19    1
    13    19    20   ar
    14    20    21   ar
    15    21    25    1
    16    25    26    1
    17    25    27    1
    18    25    28    1
    19    21    22   ar
    20    22    23   ar
    21    23    29    1
    22    29    30    1
    23    29    31    1
    24    29    32    1
    25    23    24   ar
    26     8     9   ar
    27     9    10   ar
    28    14    15   ar
    29    15    16   ar
    30    16    17   ar
    31    17    12   ar
    32    10     5   ar
    33    24    19   ar
    34     1     4    1
@<TRIPOS>MOLECULE
*****
 32 34 0 0 0
SMALL
GASTEIGER

@<TRIPOS>ATOM
      1 N          60.5210   90.3232    5.6900 N.am    1  UNL1       -0.2836
      2 C          59.1038   90.0074    6.0663 C.2     1  UNL1        0.2305
      3 O          57.9697   90.6270    5.3048 O.2     1  UNL1       -0.2744
      4 H          61.2653   89.9166    6.1899 H       1  UNL1        0.1549
      5 C          61.3706   93.1295    2.2764 C.ar    1  UNL1        0.0002
      6 C          60.0587   93.2041    2.9999 C.ar    1  UNL1        0.0013
      7 C          59.7755   92.2687    4.1377 C.ar    1  UNL1        0.0147
      8 C          60.8042   91.2586    4.5522 C.ar    1  UNL1        0.0503
      9 C          62.1161   91.1840    3.8287 C.ar    1  UNL1        0.0147
     10 C          62.3993   92.1195    2.6908 C.ar    1  UNL1        0.0013
     11 C          64.7547   95.3963   -0.9500 C.3     1  UNL1        0.0521
     12 C          63.3459   95.1983   -0.4747 C.ar    1  UNL1        0.0594
     13 C          63.0627   94.2629    0.6632 C.ar    1  UNL1        0.0147
     14 C          61.6538   94.0649    1.1384 C.ar    1  UNL1        0.0027
     15 C          60.5281   94.8024    0.4759 C.ar    1  UNL1        0.0207
     16 C          60.8114   95.7378   -0.6620 C.ar    1  UNL1        0.0984
     17 N          62.2202   95.9358   -1.1373 N.ar    1  UNL1       -0.2481
     18 C          58.8205   89.0720    7.2042 C.3     1  UNL1        0.1116
     19 C          59.9301   88.6473    8.1199 C.ar    1  UNL1       -0.0132
     20 C          60.3711   89.5507    9.2331 C.ar    1  UNL1        0.0001
     21 C          61.4807   89.1260   10.1488 C.ar    1  UNL1        0.0711
     22 C          62.1492   87.7978    9.9513 C.ar    1  UNL1        0.0077
     23 C          61.7082   86.8943    8.8380 C.ar    1  UNL1        0.0711
     24 C          60.5986   87.3190    7.9223 C.ar    1  UNL1        0.0001
     25 C          61.9217   90.0294   11.2620 C.3     1  UNL1        0.4186
     26 F          62.3628   90.9328   12.3753 F       1  UNL1       -0.1659
     27 F          63.2406   89.3171   11.3175 F       1  UNL1       -0.1659
     28 F          60.6028   90.7416   11.2065 F       1  UNL1       -0.1659
     29 C          62.3767   85.5662    8.6405 C.3     1  UNL1        0.4186
     30 F          63.0452   84.2380    8.4430 F       1  UNL1       -0.1659
     31 F          61.8398   85.5040    7.2413 F       1  UNL1       -0.1659
     32 F          62.9136   85.6283   10.0397 F       1  UNL1       -0.1659
@<TRIPOS>BOND
     1    11    12    1
     2    12    13   ar
     3    13    14   ar
     4    14     5    1
     5     5     6   ar
     6     6     7   ar
     7     7     8   ar
     8     8     1    1
     9     1     2   am
    10     2     3    2
    11     2    18    1
    12    18    19    1
    13    19    20   ar
    14    20    21   ar
    15    21    25    1
    16    25    26    1
    17    25    27    1
    18    25    28    1
    19    21    22   ar
    20    22    23   ar
    21    23    29    1
    22    29    30    1
    23    29    31    1
    24    29    32    1
    25    23    24   ar
    26     8     9   ar
    27     9    10   ar
    28    14    15   ar
    29    15    16   ar
    30    16    17   ar
    31    17    12   ar
    32    10     5   ar
    33    24    19   ar
    34     1     4    1
