@<TRIPOS>MOLECULE
*****
 38 43 0 0 0
SMALL
GASTEIGER

@<TRIPOS>ATOM
      1 C          63.7213   84.4680   13.8680 C.2     1  UNL1        0.1558
      2 N          64.5108   84.9514   15.0483 N.2     1  UNL1       -0.2402
      3 C          64.5736   86.4486   14.9822 C.2     1  UNL1        0.0929
      4 C          63.8229   86.8906   13.7611 C.2     1  UNL1        0.0093
      5 C          63.2962   85.6665   13.0725 C.3     1  UNL1        0.1374
      6 N          62.4975   85.8014   11.8100 N.pl3   1  UNL1       -0.3295
      7 C          62.2255   87.1604   11.2361 C.2     1  UNL1        0.0215
      8 C          62.7522   88.3844   11.9247 C.2     1  UNL1        0.0322
      9 C          62.4803   89.7433   11.3509 C.2     1  UNL1        0.1707
     10 O          63.0070   90.9674   12.0395 O.2     1  UNL1       -0.2916
     11 C          61.6816   89.8782   10.0884 C.3     1  UNL1        0.0693
     12 C          61.1549   88.6541    9.3998 C.3     1  UNL1        0.0141
     13 C          61.4268   87.2952    9.9736 C.3     1  UNL1        0.0411
     14 C          63.5510   88.2495   13.1873 C.3     1  UNL1        0.1049
     15 H          62.1518   84.9980   11.3580 H       1  UNL1        0.1471
     16 C          64.0777   89.4736   13.8759 C.ar    1  UNL1        0.1312
     17 C          63.6215   90.0039   15.2028 C.ar    1  UNL1        0.0373
     18 C          64.4150   91.2403   15.5055 C.ar    1  UNL1        0.0472
     19 C          65.3616   91.4742   14.3657 C.ar    1  UNL1        0.1774
     20 O          65.1531   90.3823   13.3585 O.2     1  UNL1       -0.4506
     21 S          66.3441   92.6020   14.2528 S.3     1  UNL1       -0.0117
     22 C          66.5476   93.2903   12.9358 C.2     1  UNL1        0.1967
     23 N          67.2574   92.7206   11.7435 N.2     1  UNL1       -0.2184
     24 C          67.2256   93.7475   10.6505 C.2     1  UNL1        0.1101
     25 C          67.7666   93.7414    9.2515 C.2     1  UNL1        0.0603
     26 N          68.4960   92.5370    8.7347 N.pl3   1  UNL1       -0.3558
     27 C          67.5780   94.9399    8.3694 C.2     1  UNL1        0.0115
     28 C          66.8486   96.1443    8.8862 C.2     1  UNL1       -0.0184
     29 C          66.3076   96.1504   10.2852 C.3     1  UNL1        0.0735
     30 C          66.4961   94.9520   11.1674 C.2     1  UNL1        0.0843
     31 N          66.0771   94.6694   12.5798 N.2     1  UNL1       -0.2234
     32 H          68.6197   91.7504    9.3137 H       1  UNL1        0.1424
     33 H          68.8510   92.5330    7.8165 H       1  UNL1        0.1424
     34 C          63.4114   83.0374   13.5407 C.2     1  UNL1        0.3569
     35 O          63.8020   81.9480   14.4950 O.2     1  UNL1       -0.2435
     36 O          62.7108   82.6960   12.2590 O.3     1  UNL1       -0.4446
     37 C          64.2759   83.0536   10.2163 C.3     1  UNL1        0.0513
     38 C          63.4887   82.1367   11.1049 C.3     1  UNL1        0.2089
@<TRIPOS>BOND
     1    37    38    1
     2    38    36    1
     3    36    34    1
     4    34    35    2
     5    34     1    1
     6     1     2    2
     7     2     3    1
     8     3     4    2
     9     4     5    1
    10     5     6    1
    11     6     7    1
    12     7     8    2
    13     8     9    1
    14     9    10    2
    15     9    11    1
    16    11    12    1
    17    12    13    1
    18     8    14    1
    19    14    16    1
    20    16    17   ar
    21    17    18   ar
    22    18    19   ar
    23    19    21    1
    24    21    22    1
    25    22    23    2
    26    23    24    1
    27    24    25    2
    28    25    26    1
    29    25    27    1
    30    27    28    2
    31    28    29    1
    32    29    30    1
    33    30    31    2
    34    19    20   ar
    35     5     1    1
    36    13     7    1
    37    20    16   ar
    38    14     4    1
    39    31    22    1
    40    30    24    1
    41     6    15    1
    42    26    32    1
    43    26    33    1
@<TRIPOS>MOLECULE
*****
 38 43 0 0 0
SMALL
GASTEIGER

@<TRIPOS>ATOM
      1 C          60.8273   88.1744    9.4644 C.2     1  UNL1        0.1558
      2 N          60.9140   89.6652    9.6056 N.2     1  UNL1       -0.2402
      3 C          61.7782   89.9687   10.7935 C.2     1  UNL1        0.0929
      4 C          62.2255   88.6655   11.3864 C.2     1  UNL1        0.0093
      5 C          61.6378   87.5565   10.5649 C.3     1  UNL1        0.1374
      6 N          61.9166   86.1274   10.9252 N.pl3   1  UNL1       -0.3295
      7 C          62.7832   85.8072   12.1070 C.2     1  UNL1        0.0215
      8 C          63.3709   86.9161   12.9285 C.2     1  UNL1        0.0322
      9 C          64.2374   86.5960   14.1103 C.2     1  UNL1        0.1707
     10 O          64.8251   87.7049   14.9318 O.2     1  UNL1       -0.2916
     11 C          64.5162   85.1668   14.4705 C.3     1  UNL1        0.0693
     12 C          63.9285   84.0579   13.6490 C.3     1  UNL1        0.0141
     13 C          63.0620   84.3781   12.4673 C.3     1  UNL1        0.0411
     14 C          63.0920   88.3453   12.5682 C.3     1  UNL1        0.1049
     15 H          61.5309   85.3996   10.3860 H       1  UNL1        0.1471
     16 C          63.6797   89.4543   13.3897 C.ar    1  UNL1        0.1312
     17 C          63.2318   89.8693   14.7597 C.ar    1  UNL1        0.0373
     18 C          64.0937   91.0144   15.2022 C.ar    1  UNL1        0.0472
     19 C          65.0744   91.3071   14.1055 C.ar    1  UNL1        0.1774
     20 O          64.8185   90.3428   12.9854 O.2     1  UNL1       -0.4506
     21 S          66.1263   92.3763   14.1255 S.3     1  UNL1       -0.0117
     22 C          66.4207   93.1621   12.8823 C.2     1  UNL1        0.1967
     23 N          67.1120   92.6453   11.6556 N.2     1  UNL1       -0.2184
     24 C          67.1940   93.7666   10.6625 C.2     1  UNL1        0.1101
     25 C          67.7693   93.8422    9.2793 C.2     1  UNL1        0.0603
     26 N          68.4099   92.6324    8.6663 N.pl3   1  UNL1       -0.3558
     27 C          67.7038   95.1278    8.5092 C.2     1  UNL1        0.0115
     28 C          67.0632   96.3376    9.1222 C.2     1  UNL1       -0.0184
     29 C          66.4880   96.2619   10.5054 C.3     1  UNL1        0.0735
     30 C          66.5534   94.9764   11.2756 C.2     1  UNL1        0.0843
     31 N          66.0754   94.6028   12.6475 N.2     1  UNL1       -0.2234
     32 H          68.4528   91.7887    9.1718 H       1  UNL1        0.1424
     33 H          68.7874   92.6821    7.7584 H       1  UNL1        0.1424
     34 C          60.0640   87.4318    8.4079 C.2     1  UNL1        0.3569
     35 O          59.0969   88.1650    7.5264 O.2     1  UNL1       -0.2435
     36 O          60.2679   85.9561    8.2331 O.3     1  UNL1       -0.4446
     37 C          62.6890   85.1347    7.7706 C.3     1  UNL1        0.0513
     38 C          61.3080   85.4506    7.2777 C.3     1  UNL1        0.2089
@<TRIPOS>BOND
     1    37    38    1
     2    38    36    1
     3    36    34    1
     4    34    35    2
     5    34     1    1
     6     1     2    2
     7     2     3    1
     8     3     4    2
     9     4     5    1
    10     5     6    1
    11     6     7    1
    12     7     8    2
    13     8     9    1
    14     9    10    2
    15     9    11    1
    16    11    12    1
    17    12    13    1
    18     8    14    1
    19    14    16    1
    20    16    17   ar
    21    17    18   ar
    22    18    19   ar
    23    19    21    1
    24    21    22    1
    25    22    23    2
    26    23    24    1
    27    24    25    2
    28    25    26    1
    29    25    27    1
    30    27    28    2
    31    28    29    1
    32    29    30    1
    33    30    31    2
    34    19    20   ar
    35     5     1    1
    36    13     7    1
    37    20    16   ar
    38    14     4    1
    39    31    22    1
    40    30    24    1
    41     6    15    1
    42    26    32    1
    43    26    33    1
@<TRIPOS>MOLECULE
*****
 38 43 0 0 0
SMALL
GASTEIGER

@<TRIPOS>ATOM
      1 C          60.5624   88.4613    9.3630 C.2     1  UNL1        0.1558
      2 N          60.6936   89.9394    9.5817 N.2     1  UNL1       -0.2402
      3 C          61.5973   90.1553   10.7593 C.2     1  UNL1        0.0929
      4 C          62.0246   88.8106   11.2684 C.2     1  UNL1        0.0093
      5 C          61.3850   87.7636   10.4054 C.3     1  UNL1        0.1374
      6 N          61.6343   86.3102   10.6803 N.pl3   1  UNL1       -0.3295
      7 C          62.5232   85.9038   11.8182 C.2     1  UNL1        0.0215
      8 C          63.1628   86.9508   12.6812 C.2     1  UNL1        0.0322
      9 C          64.0516   86.5445   13.8190 C.2     1  UNL1        0.1707
     10 O          64.6912   87.5914   14.6820 O.2     1  UNL1       -0.2916
     11 C          64.3009   85.0911   14.0939 C.3     1  UNL1        0.0693
     12 C          63.6613   84.0441   13.2309 C.3     1  UNL1        0.0141
     13 C          62.7724   84.4505   12.0931 C.3     1  UNL1        0.0411
     14 C          62.9134   88.4042   12.4063 C.3     1  UNL1        0.1049
     15 H          61.2145   85.6231   10.1139 H       1  UNL1        0.1471
     16 C          63.5530   89.4512   13.2692 C.ar    1  UNL1        0.1312
     17 C          63.1499   89.8064   14.6697 C.ar    1  UNL1        0.0373
     18 C          64.0558   90.9015   15.1493 C.ar    1  UNL1        0.0472
     19 C          65.0188   91.2233   14.0452 C.ar    1  UNL1        0.1774
     20 O          64.7081   90.3269   12.8833 O.2     1  UNL1       -0.4506
     21 S          66.1023   92.2594   14.0944 S.3     1  UNL1       -0.0117
     22 C          66.3963   93.0951   12.8840 C.2     1  UNL1        0.1967
     23 N          67.0995   92.6322   11.6426 N.2     1  UNL1       -0.2184
     24 C          67.1766   93.7915   10.6938 C.2     1  UNL1        0.1101
     25 C          67.7590   93.9255    9.3180 C.2     1  UNL1        0.0603
     26 N          68.4146   92.7462    8.6629 N.pl3   1  UNL1       -0.3558
     27 C          67.6858   95.2391    8.5974 C.2     1  UNL1        0.0115
     28 C          67.0303   96.4185    9.2524 C.2     1  UNL1       -0.0184
     29 C          66.4478   96.2844   10.6282 C.3     1  UNL1        0.0735
     30 C          66.5210   94.9709   11.3489 C.2     1  UNL1        0.0843
     31 N          66.0388   94.5405   12.7025 N.2     1  UNL1       -0.2234
     32 H          68.4626   91.8841    9.1359 H       1  UNL1        0.1424
     33 H          68.7968   92.8342    7.7599 H       1  UNL1        0.1424
     34 C          59.7511   87.7973    8.2902 C.2     1  UNL1        0.3569
     35 O          59.8343   86.3120    8.0978 O.2     1  UNL1       -0.2435
     36 O          58.8564   88.6186    7.4098 O.3     1  UNL1       -0.4446
     37 C          58.6324   90.5584    5.6961 C.3     1  UNL1        0.0513
     38 C          59.4470   89.4650    6.3213 C.3     1  UNL1        0.2089
@<TRIPOS>BOND
     1    37    38    1
     2    38    36    1
     3    36    34    1
     4    34    35    2
     5    34     1    1
     6     1     2    2
     7     2     3    1
     8     3     4    2
     9     4     5    1
    10     5     6    1
    11     6     7    1
    12     7     8    2
    13     8     9    1
    14     9    10    2
    15     9    11    1
    16    11    12    1
    17    12    13    1
    18     8    14    1
    19    14    16    1
    20    16    17   ar
    21    17    18   ar
    22    18    19   ar
    23    19    21    1
    24    21    22    1
    25    22    23    2
    26    23    24    1
    27    24    25    2
    28    25    26    1
    29    25    27    1
    30    27    28    2
    31    28    29    1
    32    29    30    1
    33    30    31    2
    34    19    20   ar
    35     5     1    1
    36    13     7    1
    37    20    16   ar
    38    14     4    1
    39    31    22    1
    40    30    24    1
    41     6    15    1
    42    26    32    1
    43    26    33    1
