@<TRIPOS>MOLECULE
*****
 32 35 0 0 0
SMALL
GASTEIGER

@<TRIPOS>ATOM
      1 N          64.4034   90.4402   13.7294 N.ar    1  UNL1       -0.3028
      2 C          65.4842   91.4686   13.8853 C.ar    1  UNL1        0.0833
      3 C          65.5542   92.2636   12.6153 C.ar    1  UNL1        0.0579
      4 C          64.5166   91.7266   11.6745 C.ar    1  UNL1        0.0229
      5 C          64.1276   92.1183   10.2798 C.ar    1  UNL1        0.0017
      6 C          63.0273   91.3829    9.5737 C.ar    1  UNL1        0.0024
      7 C          62.3160   90.2560   10.2622 C.ar    1  UNL1        0.0311
      8 C          62.7051   89.8644   11.6570 C.ar    1  UNL1        0.1561
      9 F          61.9938   88.7375   12.3455 F       1  UNL1       -0.2026
     10 C          63.8053   90.5997   12.3631 C.ar    1  UNL1        0.0917
     11 C          63.1712   87.4087   16.8185 C.ar    1  UNL1        0.0141
     12 C          62.7923   88.8500   16.9892 C.ar    1  UNL1        0.0026
     13 C          63.2031   89.8605   15.9595 C.ar    1  UNL1        0.0176
     14 C          63.9926   89.4298   14.7591 C.ar    1  UNL1        0.0641
     15 C          64.3715   87.9884   14.5884 C.ar    1  UNL1        0.0176
     16 C          63.9608   86.9779   15.6181 C.ar    1  UNL1        0.0026
     17 O          62.7339   86.7751   19.2998 O.co2   1  UNL1       -0.5446
     18 C          62.7604   86.3983   17.8482 C.2     1  UNL1        0.0729
     19 O          62.3762   85.0111   17.4262 O.co2   1  UNL1       -0.5446
     20 C          66.4963   93.3967   12.3352 C.2     1  UNL1        0.1978
     21 O          66.8455   94.3683   13.4233 O.2     1  UNL1       -0.2865
     22 C          67.0894   93.5582   10.9668 C.ar    1  UNL1        0.0535
     23 C          68.0228   92.5160   10.4262 C.ar    1  UNL1        0.0607
     24 CL         68.3632   91.3122   11.2539 Cl      1  UNL1       -0.0821
     25 C          68.6158   92.6774    9.0579 C.ar    1  UNL1        0.0115
     26 C          68.2754   93.8812    8.2303 C.ar    1  UNL1        0.0008
     27 C          67.3419   94.9235    8.7710 C.ar    1  UNL1        0.0040
     28 C          66.7489   94.7621   10.1392 C.ar    1  UNL1        0.0753
     29 C          65.8155   95.8043   10.6799 C.3     1  UNL1        0.4187
     30 F          64.8820   96.8466   11.2206 F       1  UNL1       -0.1659
     31 F          64.6462   95.0419   10.1309 F       1  UNL1       -0.1659
     32 F          66.9848   96.5668   11.2289 F       1  UNL1       -0.1659
@<TRIPOS>UNITY_ATOM_ATTR
17 1
charge -1
@<TRIPOS>BOND
     1    17    18   ar
     2    18    19   ar
     3    18    11    1
     4    11    12   ar
     5    12    13   ar
     6    13    14   ar
     7    14     1    1
     8     1     2   ar
     9     2     3   ar
    10     3    20    1
    11    20    21    2
    12    20    22    1
    13    22    23   ar
    14    23    24    1
    15    23    25   ar
    16    25    26   ar
    17    26    27   ar
    18    27    28   ar
    19    28    29    1
    20    29    30    1
    21    29    31    1
    22    29    32    1
    23     3     4   ar
    24     4     5   ar
    25     5     6   ar
    26     6     7   ar
    27     7     8   ar
    28     8     9    1
    29     8    10   ar
    30    14    15   ar
    31    15    16   ar
    32    16    11   ar
    33    10     1   ar
    34    28    22   ar
    35    10     4   ar
@<TRIPOS>MOLECULE
*****
 32 35 0 0 0
SMALL
GASTEIGER

@<TRIPOS>ATOM
      1 N          63.7093   86.9340   14.0675 N.ar    1  UNL1       -0.3028
      2 C          64.0182   88.3179   13.5785 C.ar    1  UNL1        0.0833
      3 C          63.8768   89.2610   14.7363 C.ar    1  UNL1        0.0579
      4 C          63.4804   88.4598   15.9410 C.ar    1  UNL1        0.0229
      5 C          63.2004   88.8541   17.3609 C.ar    1  UNL1        0.0017
      6 C          62.8170   87.8102   18.3674 C.ar    1  UNL1        0.0024
      7 C          62.7135   86.3720   17.9540 C.ar    1  UNL1        0.0311
      8 C          62.9935   85.9777   16.5341 C.ar    1  UNL1        0.1561
      9 F          62.8900   84.5395   16.1208 F       1  UNL1       -0.2026
     10 C          63.3770   87.0216   15.5276 C.ar    1  UNL1        0.0917
     11 C          63.7691   83.1782   11.5894 C.ar    1  UNL1        0.0141
     12 C          64.6551   83.2961   12.7940 C.ar    1  UNL1        0.0026
     13 C          64.6351   84.5481   13.6200 C.ar    1  UNL1        0.0176
     14 C          63.7293   85.6820   13.2415 C.ar    1  UNL1        0.0641
     15 C          62.8432   85.5641   12.0368 C.ar    1  UNL1        0.0176
     16 C          62.8632   84.3122   11.2108 C.ar    1  UNL1        0.0026
     17 O          64.7174   81.8165    9.5903 O.co2   1  UNL1       -0.5446
     18 C          63.7891   81.9263   10.7634 C.2     1  UNL1        0.0729
     19 O          62.8807   80.7842   11.1105 O.co2   1  UNL1       -0.5446
     20 C          64.0935   90.7447   14.6966 C.2     1  UNL1        0.1978
     21 O          63.6435   91.5995   15.8440 O.2     1  UNL1       -0.2865
     22 C          64.7605   91.3737   13.5092 C.ar    1  UNL1        0.0535
     23 C          64.0629   91.3956   12.1815 C.ar    1  UNL1        0.0607
     24 CL         62.6984   90.7885   12.0411 Cl      1  UNL1       -0.0821
     25 C          64.7298   92.0245   10.9942 C.ar    1  UNL1        0.0115
     26 C          66.0942   92.6316   11.1347 C.ar    1  UNL1        0.0008
     27 C          66.7918   92.6097   12.4624 C.ar    1  UNL1        0.0040
     28 C          66.1249   91.9808   13.6497 C.ar    1  UNL1        0.0753
     29 C          66.8225   91.9589   14.9775 C.3     1  UNL1        0.4187
     30 F          67.5200   91.9370   16.3052 F       1  UNL1       -0.1659
     31 F          67.3816   90.6034   14.6614 F       1  UNL1       -0.1659
     32 F          66.2633   93.3144   15.2936 F       1  UNL1       -0.1659
@<TRIPOS>UNITY_ATOM_ATTR
17 1
charge -1
@<TRIPOS>BOND
     1    17    18   ar
     2    18    19   ar
     3    18    11    1
     4    11    12   ar
     5    12    13   ar
     6    13    14   ar
     7    14     1    1
     8     1     2   ar
     9     2     3   ar
    10     3    20    1
    11    20    21    2
    12    20    22    1
    13    22    23   ar
    14    23    24    1
    15    23    25   ar
    16    25    26   ar
    17    26    27   ar
    18    27    28   ar
    19    28    29    1
    20    29    30    1
    21    29    31    1
    22    29    32    1
    23     3     4   ar
    24     4     5   ar
    25     5     6   ar
    26     6     7   ar
    27     7     8   ar
    28     8     9    1
    29     8    10   ar
    30    14    15   ar
    31    15    16   ar
    32    16    11   ar
    33    10     1   ar
    34    28    22   ar
    35    10     4   ar
@<TRIPOS>MOLECULE
*****
 32 35 0 0 0
SMALL
GASTEIGER

@<TRIPOS>ATOM
      1 N          62.3772   87.2503   11.3542 N.ar    1  UNL1       -0.3028
      2 C          62.6835   85.8066   11.6225 C.ar    1  UNL1        0.0833
      3 C          63.5124   85.7329   12.8705 C.ar    1  UNL1        0.0579
      4 C          63.7184   87.1309   13.3735 C.ar    1  UNL1        0.0229
      5 C          64.4543   87.6711   14.5637 C.ar    1  UNL1        0.0017
      6 C          64.4885   89.1492   14.8168 C.ar    1  UNL1        0.0024
      7 C          63.7869   90.0870   13.8797 C.ar    1  UNL1        0.0311
      8 C          63.0511   89.5468   12.6895 C.ar    1  UNL1        0.1561
      9 F          62.3494   90.4847   11.7524 F       1  UNL1       -0.2026
     10 C          63.0168   88.0688   12.4363 C.ar    1  UNL1        0.0917
     11 C          59.9632   88.8459    7.9079 C.ar    1  UNL1        0.0141
     12 C          60.5660   89.7924    8.9032 C.ar    1  UNL1        0.0026
     13 C          61.3707   89.2605   10.0520 C.ar    1  UNL1        0.0176
     14 C          61.5726   87.7822   10.2055 C.ar    1  UNL1        0.0641
     15 C          60.9697   86.8356    9.2101 C.ar    1  UNL1        0.0176
     16 C          60.1651   87.3675    8.0613 C.ar    1  UNL1        0.0026
     17 O          59.8324   90.1564    5.6685 O.co2   1  UNL1       -0.5446
     18 C          59.1586   89.3778    6.7591 C.2     1  UNL1        0.0729
     19 O          57.6802   89.1310    6.7011 O.co2   1  UNL1       -0.5446
     20 C          64.0423   84.4808   13.5042 C.2     1  UNL1        0.1978
     21 O          65.4000   84.4796   14.1418 O.2     1  UNL1       -0.2865
     22 C          63.2144   83.2299   13.5004 C.ar    1  UNL1        0.0535
     23 C          62.3060   82.9281   14.6552 C.ar    1  UNL1        0.0607
     24 CL         62.2256   83.8773   15.8140 Cl      1  UNL1       -0.0821
     25 C          61.4782   81.6773   14.6514 C.ar    1  UNL1        0.0115
     26 C          61.5587   80.7282   13.4927 C.ar    1  UNL1        0.0008
     27 C          62.4671   81.0300   12.3378 C.ar    1  UNL1        0.0040
     28 C          63.2949   82.2808   12.3416 C.ar    1  UNL1        0.0753
     29 C          64.2033   82.5826   11.1867 C.3     1  UNL1        0.4187
     30 F          65.1117   82.8843   10.0318 F       1  UNL1       -0.1659
     31 F          63.0234   83.0296   10.3755 F       1  UNL1       -0.1659
     32 F          65.3832   82.1355   11.9979 F       1  UNL1       -0.1659
@<TRIPOS>UNITY_ATOM_ATTR
17 1
charge -1
@<TRIPOS>BOND
     1    17    18   ar
     2    18    19   ar
     3    18    11    1
     4    11    12   ar
     5    12    13   ar
     6    13    14   ar
     7    14     1    1
     8     1     2   ar
     9     2     3   ar
    10     3    20    1
    11    20    21    2
    12    20    22    1
    13    22    23   ar
    14    23    24    1
    15    23    25   ar
    16    25    26   ar
    17    26    27   ar
    18    27    28   ar
    19    28    29    1
    20    29    30    1
    21    29    31    1
    22    29    32    1
    23     3     4   ar
    24     4     5   ar
    25     5     6   ar
    26     6     7   ar
    27     7     8   ar
    28     8     9    1
    29     8    10   ar
    30    14    15   ar
    31    15    16   ar
    32    16    11   ar
    33    10     1   ar
    34    28    22   ar
    35    10     4   ar
@<TRIPOS>MOLECULE
*****
 32 35 0 0 0
SMALL
GASTEIGER

@<TRIPOS>ATOM
      1 N          62.6446   87.0355   11.8069 N.ar    1  UNL1       -0.3028
      2 C          63.2542   88.1568   12.5951 C.ar    1  UNL1        0.0833
      3 C          62.8163   89.4506   11.9751 C.ar    1  UNL1        0.0579
      4 C          61.9362   89.1290   10.8038 C.ar    1  UNL1        0.0229
      5 C          61.2176   90.0024    9.8185 C.ar    1  UNL1        0.0017
      6 C          60.3930   89.3832    8.7293 C.ar    1  UNL1        0.0024
      7 C          60.2869   87.8905    8.6253 C.ar    1  UNL1        0.0311
      8 C          61.0054   87.0171    9.6106 C.ar    1  UNL1        0.1561
      9 F          60.8993   85.5245    9.5067 F       1  UNL1       -0.2026
     10 C          61.8300   87.6363   10.6999 C.ar    1  UNL1        0.0917
     11 C          63.1678   82.6407   12.6206 C.ar    1  UNL1        0.0141
     12 C          62.8103   83.5733   13.7397 C.ar    1  UNL1        0.0026
     13 C          62.6359   85.0382   13.4684 C.ar    1  UNL1        0.0176
     14 C          62.8190   85.5706   12.0782 C.ar    1  UNL1        0.0641
     15 C          63.1765   84.6380   10.9590 C.ar    1  UNL1        0.0176
     16 C          63.3509   83.1730   11.2302 C.ar    1  UNL1        0.0026
     17 O          62.8939   80.1666   11.8767 O.co2   1  UNL1       -0.5446
     18 C          63.3422   81.1758   12.8918 C.2     1  UNL1        0.0729
     19 O          63.9648   80.7201   14.1781 O.co2   1  UNL1       -0.5446
     20 C          63.1925   90.8249   12.4441 C.2     1  UNL1        0.1978
     21 O          62.1472   91.8959   12.5432 O.2     1  UNL1       -0.2865
     22 C          64.6143   91.1280   12.8140 C.ar    1  UNL1        0.0535
     23 C          65.5063   91.8417   11.8419 C.ar    1  UNL1        0.0607
     24 CL         64.9766   92.2522   10.4999 Cl      1  UNL1       -0.0821
     25 C          66.9280   92.1449   12.2117 C.ar    1  UNL1        0.0115
     26 C          67.4577   91.7344   13.5537 C.ar    1  UNL1        0.0008
     27 C          66.5657   91.0207   14.5258 C.ar    1  UNL1        0.0040
     28 C          65.1440   90.7175   14.1560 C.ar    1  UNL1        0.0753
     29 C          64.2520   90.0039   15.1281 C.3     1  UNL1        0.4187
     30 F          63.3600   89.2902   16.1002 F       1  UNL1       -0.1659
     31 F          63.6140   91.3092   15.5010 F       1  UNL1       -0.1659
     32 F          64.8900   88.6985   14.7552 F       1  UNL1       -0.1659
@<TRIPOS>UNITY_ATOM_ATTR
17 1
charge -1
@<TRIPOS>BOND
     1    17    18   ar
     2    18    19   ar
     3    18    11    1
     4    11    12   ar
     5    12    13   ar
     6    13    14   ar
     7    14     1    1
     8     1     2   ar
     9     2     3   ar
    10     3    20    1
    11    20    21    2
    12    20    22    1
    13    22    23   ar
    14    23    24    1
    15    23    25   ar
    16    25    26   ar
    17    26    27   ar
    18    27    28   ar
    19    28    29    1
    20    29    30    1
    21    29    31    1
    22    29    32    1
    23     3     4   ar
    24     4     5   ar
    25     5     6   ar
    26     6     7   ar
    27     7     8   ar
    28     8     9    1
    29     8    10   ar
    30    14    15   ar
    31    15    16   ar
    32    16    11   ar
    33    10     1   ar
    34    28    22   ar
    35    10     4   ar
@<TRIPOS>MOLECULE
*****
 32 35 0 0 0
SMALL
GASTEIGER

@<TRIPOS>ATOM
      1 N          62.4201   87.2905   11.3061 N.ar    1  UNL1       -0.3028
      2 C          62.8044   85.8577   11.5287 C.ar    1  UNL1        0.0833
      3 C          63.6189   85.7864   12.7863 C.ar    1  UNL1        0.0579
      4 C          63.7379   87.1750   13.3410 C.ar    1  UNL1        0.0229
      5 C          64.4253   87.7130   14.5608 C.ar    1  UNL1        0.0017
      6 C          64.3717   89.1806   14.8658 C.ar    1  UNL1        0.0024
      7 C          63.6308   90.1103   13.9510 C.ar    1  UNL1        0.0311
      8 C          62.9435   89.5722   12.7312 C.ar    1  UNL1        0.1561
      9 F          62.2026   90.5018   11.8163 F       1  UNL1       -0.2026
     10 C          62.9970   88.1046   12.4261 C.ar    1  UNL1        0.0917
     11 C          59.9670   88.8693    7.8798 C.ar    1  UNL1        0.0141
     12 C          60.6243   89.8224    8.8334 C.ar    1  UNL1        0.0026
     13 C          61.4420   89.2961    9.9755 C.ar    1  UNL1        0.0176
     14 C          61.6024   87.8168   10.1640 C.ar    1  UNL1        0.0641
     15 C          60.9450   86.8636    9.2104 C.ar    1  UNL1        0.0176
     16 C          60.1273   87.3899    8.0683 C.ar    1  UNL1        0.0026
     17 O          59.8114   90.1644    5.6330 O.co2   1  UNL1       -0.5446
     18 C          59.1492   89.3956    6.7377 C.2     1  UNL1        0.0729
     19 O          57.6695   89.1531    6.7004 O.co2   1  UNL1       -0.5446
     20 C          64.2104   84.5444   13.3843 C.2     1  UNL1        0.1978
     21 O          65.5776   84.5861   13.9999 O.2     1  UNL1       -0.2865
     22 C          63.4347   83.2606   13.3668 C.ar    1  UNL1        0.0535
     23 C          63.5928   82.3044   12.2219 C.ar    1  UNL1        0.0607
     24 CL         64.5266   82.6320   11.0947 Cl      1  UNL1       -0.0821
     25 C          62.8172   81.0206   12.2043 C.ar    1  UNL1        0.0115
     26 C          61.8834   80.6931   13.3316 C.ar    1  UNL1        0.0008
     27 C          61.7253   81.6493   14.4764 C.ar    1  UNL1        0.0040
     28 C          62.5009   82.9331   14.4941 C.ar    1  UNL1        0.0753
     29 C          62.3428   83.8893   15.6389 C.3     1  UNL1        0.4187
     30 F          62.1847   84.8455   16.7837 F       1  UNL1       -0.1659
     31 F          63.5677   83.3155   16.2873 F       1  UNL1       -0.1659
     32 F          61.1179   84.4630   14.9905 F       1  UNL1       -0.1659
@<TRIPOS>UNITY_ATOM_ATTR
17 1
charge -1
@<TRIPOS>BOND
     1    17    18   ar
     2    18    19   ar
     3    18    11    1
     4    11    12   ar
     5    12    13   ar
     6    13    14   ar
     7    14     1    1
     8     1     2   ar
     9     2     3   ar
    10     3    20    1
    11    20    21    2
    12    20    22    1
    13    22    23   ar
    14    23    24    1
    15    23    25   ar
    16    25    26   ar
    17    26    27   ar
    18    27    28   ar
    19    28    29    1
    20    29    30    1
    21    29    31    1
    22    29    32    1
    23     3     4   ar
    24     4     5   ar
    25     5     6   ar
    26     6     7   ar
    27     7     8   ar
    28     8     9    1
    29     8    10   ar
    30    14    15   ar
    31    15    16   ar
    32    16    11   ar
    33    10     1   ar
    34    28    22   ar
    35    10     4   ar
@<TRIPOS>MOLECULE
*****
 32 35 0 0 0
SMALL
GASTEIGER

@<TRIPOS>ATOM
      1 N          63.5304   90.7513   11.5814 N.ar    1  UNL1       -0.3028
      2 C          64.5044   91.7422   11.0162 C.ar    1  UNL1        0.0833
      3 C          65.2725   92.3398   12.1576 C.ar    1  UNL1        0.0579
      4 C          64.7733   91.7183   13.4282 C.ar    1  UNL1        0.0229
      5 C          65.1600   91.9195   14.8634 C.ar    1  UNL1        0.0017
      6 C          64.4700   91.1389   15.9425 C.ar    1  UNL1        0.0024
      7 C          63.3933   90.1572   15.5864 C.ar    1  UNL1        0.0311
      8 C          63.0066   89.9559   14.1512 C.ar    1  UNL1        0.1561
      9 F          61.9299   88.9742   13.7951 F       1  UNL1       -0.2026
     10 C          63.6966   90.7365   13.0721 C.ar    1  UNL1        0.0917
     11 C          60.6208   88.2601    9.2196 C.ar    1  UNL1        0.0141
     12 C          60.3258   89.7063    9.4865 C.ar    1  UNL1        0.0026
     13 C          61.2957   90.5367   10.2737 C.ar    1  UNL1        0.0176
     14 C          62.5605   89.9209   10.7941 C.ar    1  UNL1        0.0641
     15 C          62.8555   88.4745   10.5272 C.ar    1  UNL1        0.0176
     16 C          61.8856   87.6442    9.7399 C.ar    1  UNL1        0.0026
     17 O          58.4279   88.0650    7.8401 O.co2   1  UNL1       -0.5446
     18 C          59.6509   87.4297    8.4323 C.2     1  UNL1        0.0729
     19 O          59.9039   85.9641    8.2374 O.co2   1  UNL1       -0.5446
     20 C          66.3507   93.3769   12.0477 C.2     1  UNL1        0.1978
     21 O          66.7717   94.1525   13.2605 O.2     1  UNL1       -0.2865
     22 C          67.0078   93.6384   10.7248 C.ar    1  UNL1        0.0535
     23 C          67.9942   92.6540   10.1697 C.ar    1  UNL1        0.0607
     24 CL         68.3233   91.4081   10.9376 Cl      1  UNL1       -0.0821
     25 C          68.6513   92.9154    8.8470 C.ar    1  UNL1        0.0115
     26 C          68.3221   94.1613    8.0792 C.ar    1  UNL1        0.0008
     27 C          67.3357   95.1456    8.6343 C.ar    1  UNL1        0.0040
     28 C          66.6786   94.8843    9.9570 C.ar    1  UNL1        0.0753
     29 C          65.6923   95.8686   10.5121 C.3     1  UNL1        0.4187
     30 F          64.7059   96.8530   11.0671 F       1  UNL1       -0.1659
     31 F          66.8214   96.6976   11.0486 F       1  UNL1       -0.1659
     32 F          64.5631   95.0397    9.9756 F       1  UNL1       -0.1659
@<TRIPOS>UNITY_ATOM_ATTR
17 1
charge -1
@<TRIPOS>BOND
     1    17    18   ar
     2    18    19   ar
     3    18    11    1
     4    11    12   ar
     5    12    13   ar
     6    13    14   ar
     7    14     1    1
     8     1     2   ar
     9     2     3   ar
    10     3    20    1
    11    20    21    2
    12    20    22    1
    13    22    23   ar
    14    23    24    1
    15    23    25   ar
    16    25    26   ar
    17    26    27   ar
    18    27    28   ar
    19    28    29    1
    20    29    30    1
    21    29    31    1
    22    29    32    1
    23     3     4   ar
    24     4     5   ar
    25     5     6   ar
    26     6     7   ar
    27     7     8   ar
    28     8     9    1
    29     8    10   ar
    30    14    15   ar
    31    15    16   ar
    32    16    11   ar
    33    10     1   ar
    34    28    22   ar
    35    10     4   ar
@<TRIPOS>MOLECULE
*****
 32 35 0 0 0
SMALL
GASTEIGER

@<TRIPOS>ATOM
      1 N          63.5064   90.7576   11.1669 N.ar    1  UNL1       -0.3028
      2 C          64.1330   92.0213   10.6566 C.ar    1  UNL1        0.0833
      3 C          65.0214   92.5666   11.7352 C.ar    1  UNL1        0.0579
      4 C          64.9439   91.6399   12.9121 C.ar    1  UNL1        0.0229
      5 C          65.6050   91.6697   14.2582 C.ar    1  UNL1        0.0017
      6 C          65.3297   90.5815   15.2532 C.ar    1  UNL1        0.0024
      7 C          64.3934   89.4634   14.9020 C.ar    1  UNL1        0.0311
      8 C          63.7323   89.4337   13.5559 C.ar    1  UNL1        0.1561
      9 F          62.7960   88.3156   13.2047 F       1  UNL1       -0.2026
     10 C          64.0076   90.5219   12.5609 C.ar    1  UNL1        0.0917
     11 C          60.6284   88.1341    8.9120 C.ar    1  UNL1        0.0141
     12 C          60.2792   89.5665    9.1880 C.ar    1  UNL1        0.0026
     13 C          61.2385   90.4410    9.9397 C.ar    1  UNL1        0.0176
     14 C          62.5471   89.8832   10.4153 C.ar    1  UNL1        0.0641
     15 C          62.8964   88.4507   10.1392 C.ar    1  UNL1        0.0176
     16 C          61.9370   87.5762    9.3876 C.ar    1  UNL1        0.0026
     17 O          58.3323   87.7977    7.7439 O.co2   1  UNL1       -0.5446
     18 C          59.6691   87.2596    8.1603 C.2     1  UNL1        0.0729
     19 O          60.0466   85.8472    7.8251 O.co2   1  UNL1       -0.5446
     20 C          65.8431   93.8187   11.6515 C.2     1  UNL1        0.1978
     21 O          66.0806   94.6436   12.8815 O.2     1  UNL1       -0.2865
     22 C          66.4273   94.2461   10.3376 C.ar    1  UNL1        0.0535
     23 C          65.9329   95.4936    9.6673 C.ar    1  UNL1        0.0607
     24 CL         64.8544   96.3138   10.3109 Cl      1  UNL1       -0.0821
     25 C          66.5171   95.9210    8.3535 C.ar    1  UNL1        0.0115
     26 C          67.5956   95.1008    7.7100 C.ar    1  UNL1        0.0008
     27 C          68.0899   93.8532    8.3803 C.ar    1  UNL1        0.0040
     28 C          67.5058   93.4259    9.6941 C.ar    1  UNL1        0.0753
     29 C          68.0001   92.1784   10.3644 C.3     1  UNL1        0.4187
     30 F          68.4944   90.9308   11.0347 F       1  UNL1       -0.1659
     31 F          67.7693   91.4069    9.0989 F       1  UNL1       -0.1659
     32 F          68.2308   92.9498   11.6300 F       1  UNL1       -0.1659
@<TRIPOS>UNITY_ATOM_ATTR
17 1
charge -1
@<TRIPOS>BOND
     1    17    18   ar
     2    18    19   ar
     3    18    11    1
     4    11    12   ar
     5    12    13   ar
     6    13    14   ar
     7    14     1    1
     8     1     2   ar
     9     2     3   ar
    10     3    20    1
    11    20    21    2
    12    20    22    1
    13    22    23   ar
    14    23    24    1
    15    23    25   ar
    16    25    26   ar
    17    26    27   ar
    18    27    28   ar
    19    28    29    1
    20    29    30    1
    21    29    31    1
    22    29    32    1
    23     3     4   ar
    24     4     5   ar
    25     5     6   ar
    26     6     7   ar
    27     7     8   ar
    28     8     9    1
    29     8    10   ar
    30    14    15   ar
    31    15    16   ar
    32    16    11   ar
    33    10     1   ar
    34    28    22   ar
    35    10     4   ar
@<TRIPOS>MOLECULE
*****
 32 35 0 0 0
SMALL
GASTEIGER

@<TRIPOS>ATOM
      1 N          63.7096   86.8369   14.0303 N.ar    1  UNL1       -0.3028
      2 C          64.0350   88.2135   13.5312 C.ar    1  UNL1        0.0833
      3 C          63.9056   89.1664   14.6824 C.ar    1  UNL1        0.0579
      4 C          63.5002   88.3788   15.8929 C.ar    1  UNL1        0.0229
      5 C          63.2257   88.7866   17.3100 C.ar    1  UNL1        0.0017
      6 C          62.8301   87.7546   18.3241 C.ar    1  UNL1        0.0024
      7 C          62.7090   86.3148   17.9211 C.ar    1  UNL1        0.0311
      8 C          62.9835   85.9071   16.5039 C.ar    1  UNL1        0.1561
      9 F          62.8624   84.4673   16.1009 F       1  UNL1       -0.2026
     10 C          63.3791   86.9390   15.4898 C.ar    1  UNL1        0.0917
     11 C          63.7228   83.0630   11.5791 C.ar    1  UNL1        0.0141
     12 C          62.7971   84.1874   11.2200 C.ar    1  UNL1        0.0026
     13 C          62.7927   85.4453   12.0371 C.ar    1  UNL1        0.0176
     14 C          63.7140   85.5790   13.2132 C.ar    1  UNL1        0.0641
     15 C          64.6397   84.4546   13.5723 C.ar    1  UNL1        0.0176
     16 C          64.6441   83.1966   12.7553 C.ar    1  UNL1        0.0026
     17 O          64.6290   81.6888    9.5692 O.co2   1  UNL1       -0.5446
     18 C          63.7271   81.8051   10.7621 C.2     1  UNL1        0.0729
     19 O          62.8296   80.6635   11.1379 O.co2   1  UNL1       -0.5446
     20 C          64.1403   90.6471   14.6319 C.2     1  UNL1        0.1978
     21 O          63.5610   91.5349   15.6930 O.2     1  UNL1       -0.2865
     22 C          64.9545   91.2400   13.5203 C.ar    1  UNL1        0.0535
     23 C          66.3583   91.6995   13.7814 C.ar    1  UNL1        0.0607
     24 CL         66.9479   91.5662   15.1543 Cl      1  UNL1       -0.0821
     25 C          67.1725   92.2924   12.6699 C.ar    1  UNL1        0.0115
     26 C          66.5828   92.4257   11.2971 C.ar    1  UNL1        0.0008
     27 C          65.1791   91.9661   11.0359 C.ar    1  UNL1        0.0040
     28 C          64.3649   91.3733   12.1475 C.ar    1  UNL1        0.0753
     29 C          62.9611   90.9137   11.8863 C.3     1  UNL1        0.4187
     30 F          61.5573   90.4542   11.6251 F       1  UNL1       -0.1659
     31 F          62.4470   91.9286   12.8638 F       1  UNL1       -0.1659
     32 F          63.4752   89.8988   10.9088 F       1  UNL1       -0.1659
@<TRIPOS>UNITY_ATOM_ATTR
17 1
charge -1
@<TRIPOS>BOND
     1    17    18   ar
     2    18    19   ar
     3    18    11    1
     4    11    12   ar
     5    12    13   ar
     6    13    14   ar
     7    14     1    1
     8     1     2   ar
     9     2     3   ar
    10     3    20    1
    11    20    21    2
    12    20    22    1
    13    22    23   ar
    14    23    24    1
    15    23    25   ar
    16    25    26   ar
    17    26    27   ar
    18    27    28   ar
    19    28    29    1
    20    29    30    1
    21    29    31    1
    22    29    32    1
    23     3     4   ar
    24     4     5   ar
    25     5     6   ar
    26     6     7   ar
    27     7     8   ar
    28     8     9    1
    29     8    10   ar
    30    14    15   ar
    31    15    16   ar
    32    16    11   ar
    33    10     1   ar
    34    28    22   ar
    35    10     4   ar
