@<TRIPOS>MOLECULE
*****
 30 34 0 0 0
SMALL
GASTEIGER

@<TRIPOS>ATOM
      1 C          61.8249   89.5450   10.2426 C.2     1  UNL1        0.3810
      2 N          62.1771   89.2449   11.6695 N.2     1  UNL1       -0.0328
      3 C          63.2433   90.2096   12.0966 C.2     1  UNL1        0.2318
      4 C          63.9744   90.3877   13.3941 C.2     1  UNL1        0.0495
      5 C          65.0124   91.4621   13.5288 C.2     1  UNL1       -0.0028
      6 C          65.3193   92.3585   12.3659 C.2     1  UNL1       -0.0198
      7 C          64.5882   92.1804   11.0683 C.3     1  UNL1        0.1011
      8 C          63.5502   91.1060   10.9337 C.2     1  UNL1        0.2172
      9 N          62.6736   90.6952    9.7879 N.2     1  UNL1       -0.0367
     10 C          60.3181   87.4206    9.6413 C.2     1  UNL1        0.0863
     11 C          59.3028   87.1057    8.5830 C.2     1  UNL1        0.1346
     12 N          59.1607   88.3123    7.7033 N.2     1  UNL1       -0.1491
     13 N          60.0882   89.3729    8.2180 N.2     1  UNL1       -0.1576
     14 C          60.8035   88.8218    9.4157 C.3     1  UNL1        0.2726
     15 O          62.5451   85.4750    9.1362 O.2     1  UNL1       -0.2525
     16 C          61.8823   85.5237   10.4809 C.2     1  UNL1        0.3043
     17 N          60.7689   86.4965   10.7335 N.am    1  UNL1       -0.2682
     18 N          62.3331   84.5996   11.5731 N.am    1  UNL1       -0.2903
     19 H          60.3339   86.5284   11.6161 H       1  UNL1        0.1562
     20 H          61.8981   84.6315   12.4557 H       1  UNL1        0.1509
     21 C          63.4466   83.6268   11.3205 C.3     1  UNL1        0.0732
     22 C          64.5860   82.7954   11.8310 C.3     1  UNL1        0.0213
     23 C          64.2359   82.7732   10.3726 C.3     1  UNL1        0.0213
     24 C          66.3573   93.4329   12.5006 C.3     1  UNL1        0.0954
     25 N          66.6955   94.3006   11.3247 N.3     1  UNL1       -0.2649
     26 C          67.4378   93.7238   10.1558 C.3     1  UNL1        0.1049
     27 C          67.7760   94.5916    8.9799 C.3     1  UNL1        0.1595
     28 O          67.3720   96.0361    8.9730 O.3     1  UNL1       -0.3508
     29 C          66.6297   96.6129   10.1419 C.3     1  UNL1        0.1595
     30 C          66.2915   95.7452   11.3177 C.3     1  UNL1        0.1049
@<TRIPOS>BOND
     1    15    16    2
     2    16    17   am
     3    17    10    1
     4    10    11    2
     5    11    12    1
     6    12    13    2
     7    13    14    1
     8    14     1    1
     9     1     2    2
    10     2     3    1
    11     3     4    2
    12     4     5    1
    13     5     6    2
    14     6    24    1
    15    24    25    1
    16    25    26    1
    17    26    27    1
    18    27    28    1
    19    28    29    1
    20    29    30    1
    21     6     7    1
    22     7     8    1
    23     8     9    2
    24    16    18   am
    25    18    21    1
    26    21    22    1
    27    22    23    1
    28    14    10    1
    29     9     1    1
    30    23    21    1
    31     8     3    1
    32    30    25    1
    33    17    19    1
    34    18    20    1
@<TRIPOS>MOLECULE
*****
 30 34 0 0 0
SMALL
GASTEIGER

@<TRIPOS>ATOM
      1 C          64.0531   90.4763   13.9340 C.2     1  UNL1        0.3810
      2 N          63.5064   90.9365   12.6152 N.2     1  UNL1       -0.0328
      3 C          63.0449   89.7271   11.8572 C.2     1  UNL1        0.2318
      4 C          62.4204   89.5696   10.5026 C.2     1  UNL1        0.0495
      5 C          62.0573   88.2044    9.9984 C.2     1  UNL1       -0.0028
      6 C          62.3187   86.9967   10.8488 C.2     1  UNL1       -0.0198
      7 C          62.9432   87.1542   12.2034 C.3     1  UNL1        0.1011
      8 C          63.3063   88.5195   12.7076 C.2     1  UNL1        0.2172
      9 N          63.9294   88.9825   13.9912 N.2     1  UNL1       -0.0367
     10 C          66.0372   91.8507   15.0826 C.2     1  UNL1        0.0863
     11 C          66.1675   92.6951   16.3155 C.2     1  UNL1        0.1346
     12 N          64.8341   92.7218   17.0021 N.2     1  UNL1       -0.1491
     13 N          63.8798   91.8938   16.1936 N.2     1  UNL1       -0.1576
     14 C          64.6233   91.3555   15.0073 C.3     1  UNL1        0.2726
     15 O          65.9774   93.0980   12.3548 O.2     1  UNL1       -0.2525
     16 C          67.0993   92.1773   12.7342 C.2     1  UNL1        0.3043
     17 N          67.1291   91.5537   14.0980 N.am    1  UNL1       -0.2682
     18 N          68.1912   91.8803   11.7496 N.am    1  UNL1       -0.2903
     19 H          67.8654   90.9494   14.3469 H       1  UNL1        0.1562
     20 H          68.9275   91.2760   11.9985 H       1  UNL1        0.1509
     21 C          68.1613   92.5040   10.3857 C.3     1  UNL1        0.0732
     22 C          67.7588   93.6309    9.4811 C.3     1  UNL1        0.0213
     23 C          68.5119   92.4574    8.9280 C.3     1  UNL1        0.0213
     24 C          61.9555   85.6314   10.3445 C.3     1  UNL1        0.0954
     25 N          62.7274   84.4313   10.8068 N.3     1  UNL1       -0.2649
     26 C          63.7094   83.7705    9.8854 C.3     1  UNL1        0.1049
     27 C          64.4814   82.5703   10.3478 C.3     1  UNL1        0.1595
     28 O          64.2713   82.0310   11.7315 O.3     1  UNL1       -0.3508
     29 C          63.2893   82.6917   12.6530 C.3     1  UNL1        0.1595
     30 C          62.5174   83.8919   12.1907 C.3     1  UNL1        0.1049
@<TRIPOS>BOND
     1    15    16    2
     2    16    17   am
     3    17    10    1
     4    10    11    2
     5    11    12    1
     6    12    13    2
     7    13    14    1
     8    14     1    1
     9     1     2    2
    10     2     3    1
    11     3     4    2
    12     4     5    1
    13     5     6    2
    14     6    24    1
    15    24    25    1
    16    25    26    1
    17    26    27    1
    18    27    28    1
    19    28    29    1
    20    29    30    1
    21     6     7    1
    22     7     8    1
    23     8     9    2
    24    16    18   am
    25    18    21    1
    26    21    22    1
    27    22    23    1
    28    14    10    1
    29     9     1    1
    30    23    21    1
    31     8     3    1
    32    30    25    1
    33    17    19    1
    34    18    20    1
@<TRIPOS>MOLECULE
*****
 30 34 0 0 0
SMALL
GASTEIGER

@<TRIPOS>ATOM
      1 C          62.6684   84.5493   11.7919 C.2     1  UNL1        0.3810
      2 N          61.9760   84.9627   10.5271 N.2     1  UNL1       -0.0328
      3 C          61.9903   86.4611   10.4592 C.2     1  UNL1        0.2318
      4 C          61.4554   87.4249    9.4418 C.2     1  UNL1        0.0495
      5 C          61.6218   88.9014    9.6474 C.2     1  UNL1       -0.0028
      6 C          62.3230   89.4141   10.8702 C.2     1  UNL1       -0.0198
      7 C          62.8579   88.4503   11.8876 C.3     1  UNL1        0.1011
      8 C          62.6915   86.9738   11.6820 C.2     1  UNL1        0.2172
      9 N          63.1106   85.7923   12.5057 N.2     1  UNL1       -0.0367
     10 C          63.6473   82.7234   13.4809 C.2     1  UNL1        0.0863
     11 C          63.6048   81.2264   13.5658 C.2     1  UNL1        0.1346
     12 N          62.8123   80.7182   12.3980 N.2     1  UNL1       -0.1491
     13 N          62.3651   81.9012   11.5913 N.2     1  UNL1       -0.1576
     14 C          62.8811   83.1404   12.2606 C.3     1  UNL1        0.2726
     15 O          62.0305   84.5723   15.2036 O.2     1  UNL1       -0.2525
     16 C          63.5269   84.5664   15.3080 C.2     1  UNL1        0.3043
     17 N          64.3352   83.6421   14.4467 N.am    1  UNL1       -0.2682
     18 N          64.2148   85.4851   16.2739 N.am    1  UNL1       -0.2903
     19 H          65.3173   83.6383   14.5153 H       1  UNL1        0.1562
     20 H          65.1969   85.4813   16.3424 H       1  UNL1        0.1509
     21 C          63.4064   86.4095   17.1352 C.3     1  UNL1        0.0732
     22 C          62.7991   87.7593   17.3789 C.3     1  UNL1        0.0213
     23 C          62.6135   86.6610   18.3834 C.3     1  UNL1        0.0213
     24 C          62.4893   90.8906   11.0757 C.3     1  UNL1        0.0954
     25 N          63.8015   91.4383   11.5535 N.3     1  UNL1       -0.2649
     26 C          64.1918   91.2995   12.9952 C.3     1  UNL1        0.1049
     27 C          65.5040   91.8472   13.4730 C.3     1  UNL1        0.1595
     28 O          66.4259   92.5335   12.5092 O.3     1  UNL1       -0.3508
     29 C          66.0356   92.6722   11.0675 C.3     1  UNL1        0.1595
     30 C          64.7234   92.1246   10.5897 C.3     1  UNL1        0.1049
@<TRIPOS>BOND
     1    15    16    2
     2    16    17   am
     3    17    10    1
     4    10    11    2
     5    11    12    1
     6    12    13    2
     7    13    14    1
     8    14     1    1
     9     1     2    2
    10     2     3    1
    11     3     4    2
    12     4     5    1
    13     5     6    2
    14     6    24    1
    15    24    25    1
    16    25    26    1
    17    26    27    1
    18    27    28    1
    19    28    29    1
    20    29    30    1
    21     6     7    1
    22     7     8    1
    23     8     9    2
    24    16    18   am
    25    18    21    1
    26    21    22    1
    27    22    23    1
    28    14    10    1
    29     9     1    1
    30    23    21    1
    31     8     3    1
    32    30    25    1
    33    17    19    1
    34    18    20    1
@<TRIPOS>MOLECULE
*****
 30 34 0 0 0
SMALL
GASTEIGER

@<TRIPOS>ATOM
      1 C          64.7152   91.2269   13.4179 C.2     1  UNL1        0.3810
      2 N          64.1417   91.7731   12.1440 N.2     1  UNL1       -0.0328
      3 C          63.2755   90.7118   11.5330 C.2     1  UNL1        0.2318
      4 C          62.4571   90.6847   10.2763 C.2     1  UNL1        0.0495
      5 C          61.6767   89.4555    9.9159 C.2     1  UNL1       -0.0028
      6 C          61.7148   88.2533   10.8122 C.2     1  UNL1       -0.0198
      7 C          62.5333   88.2803   12.0689 C.3     1  UNL1        0.1011
      8 C          63.3137   89.5096   12.4293 C.2     1  UNL1        0.2172
      9 N          64.2034   89.8280   13.5942 N.2     1  UNL1       -0.0367
     10 C          66.9359   92.6052   13.9778 C.2     1  UNL1        0.0863
     11 C          67.5255   93.2085   15.2182 C.2     1  UNL1        0.1346
     12 N          66.5922   92.9284   16.3586 N.2     1  UNL1       -0.1491
     13 N          65.4258   92.1520   15.8230 N.2     1  UNL1       -0.1576
     14 C          65.6383   91.9522   14.3516 C.3     1  UNL1        0.2726
     15 O          66.1971   94.8104   12.0828 O.2     1  UNL1       -0.2525
     16 C          67.1689   93.7500   11.6573 C.2     1  UNL1        0.3043
     17 N          67.5383   92.6474   12.6048 N.am    1  UNL1       -0.2682
     18 N          67.7713   93.7923   10.2842 N.am    1  UNL1       -0.2903
     19 H          68.1762   91.9515   12.3254 H       1  UNL1        0.1562
     20 H          68.4092   93.0963   10.0049 H       1  UNL1        0.1509
     21 C          67.4019   94.8949    9.3367 C.3     1  UNL1        0.0732
     22 C          67.2353   96.3572    9.0468 C.3     1  UNL1        0.0213
     23 C          66.9285   95.3425    7.9855 C.3     1  UNL1        0.0213
     24 C          60.9344   87.0240   10.4517 C.3     1  UNL1        0.0954
     25 N          61.2492   86.2795    9.1882 N.3     1  UNL1       -0.2649
     26 C          62.6116   85.6847    8.9877 C.3     1  UNL1        0.1049
     27 C          62.9263   84.9402    7.7241 C.3     1  UNL1        0.1595
     28 O          61.8788   84.7904    6.6611 O.3     1  UNL1       -0.3508
     29 C          60.5164   85.3851    6.8615 C.3     1  UNL1        0.1595
     30 C          60.2016   86.1297    8.1251 C.3     1  UNL1        0.1049
@<TRIPOS>BOND
     1    15    16    2
     2    16    17   am
     3    17    10    1
     4    10    11    2
     5    11    12    1
     6    12    13    2
     7    13    14    1
     8    14     1    1
     9     1     2    2
    10     2     3    1
    11     3     4    2
    12     4     5    1
    13     5     6    2
    14     6    24    1
    15    24    25    1
    16    25    26    1
    17    26    27    1
    18    27    28    1
    19    28    29    1
    20    29    30    1
    21     6     7    1
    22     7     8    1
    23     8     9    2
    24    16    18   am
    25    18    21    1
    26    21    22    1
    27    22    23    1
    28    14    10    1
    29     9     1    1
    30    23    21    1
    31     8     3    1
    32    30    25    1
    33    17    19    1
    34    18    20    1
@<TRIPOS>MOLECULE
*****
 30 34 0 0 0
SMALL
GASTEIGER

@<TRIPOS>ATOM
      1 C          64.6936   90.9466   13.4941 C.2     1  UNL1        0.3810
      2 N          64.0070   91.2961   12.2071 N.2     1  UNL1       -0.0328
      3 C          63.3253   90.0619   11.6953 C.2     1  UNL1        0.2318
      4 C          62.4973   89.8072   10.4708 C.2     1  UNL1        0.0495
      5 C          61.9346   88.4401   10.2169 C.2     1  UNL1       -0.0028
      6 C          62.2000   87.3278   11.1876 C.2     1  UNL1       -0.0198
      7 C          63.0280   87.5824   12.4121 C.3     1  UNL1        0.1011
      8 C          63.5907   88.9495   12.6660 C.2     1  UNL1        0.2172
      9 N          64.4363   89.4963   13.7777 N.2     1  UNL1       -0.0367
     10 C          66.6088   92.7719   13.8757 C.2     1  UNL1        0.0863
     11 C          67.1279   93.5331   15.0594 C.2     1  UNL1        0.1346
     12 N          66.3366   93.1146   16.2629 N.2     1  UNL1       -0.1491
     13 N          65.3284   92.0947   15.8231 N.2     1  UNL1       -0.1576
     14 C          65.4966   91.8829   14.3477 C.3     1  UNL1        0.2726
     15 O          65.9973   95.2165   12.2477 O.2     1  UNL1       -0.2525
     16 C          66.8076   94.1029   11.6533 C.2     1  UNL1        0.3043
     17 N          67.1133   92.8806   12.4672 N.am    1  UNL1       -0.2682
     18 N          67.3121   94.2116   10.2449 N.am    1  UNL1       -0.2903
     19 H          67.6451   92.1497   12.0771 H       1  UNL1        0.1562
     20 H          67.8439   93.4807    9.8547 H       1  UNL1        0.1509
     21 C          67.0064   95.4339    9.4309 C.3     1  UNL1        0.0732
     22 C          66.0546   96.5203    9.0258 C.3     1  UNL1        0.0213
     23 C          67.4284   96.4647    8.4262 C.3     1  UNL1        0.0213
     24 C          61.6372   85.9606   10.9337 C.3     1  UNL1        0.0954
     25 N          62.4998   84.7479   11.1209 N.3     1  UNL1       -0.2649
     26 C          63.3393   84.2421    9.9853 C.3     1  UNL1        0.1049
     27 C          64.2019   83.0293   10.1725 C.3     1  UNL1        0.1595
     28 O          64.2251   82.3223   11.4953 O.3     1  UNL1       -0.3508
     29 C          63.3856   82.8281   12.6308 C.3     1  UNL1        0.1595
     30 C          62.5230   84.0408   12.4436 C.3     1  UNL1        0.1049
@<TRIPOS>BOND
     1    15    16    2
     2    16    17   am
     3    17    10    1
     4    10    11    2
     5    11    12    1
     6    12    13    2
     7    13    14    1
     8    14     1    1
     9     1     2    2
    10     2     3    1
    11     3     4    2
    12     4     5    1
    13     5     6    2
    14     6    24    1
    15    24    25    1
    16    25    26    1
    17    26    27    1
    18    27    28    1
    19    28    29    1
    20    29    30    1
    21     6     7    1
    22     7     8    1
    23     8     9    2
    24    16    18   am
    25    18    21    1
    26    21    22    1
    27    22    23    1
    28    14    10    1
    29     9     1    1
    30    23    21    1
    31     8     3    1
    32    30    25    1
    33    17    19    1
    34    18    20    1
@<TRIPOS>MOLECULE
*****
 30 34 0 0 0
SMALL
GASTEIGER

@<TRIPOS>ATOM
      1 C          61.6167   89.3582   10.0549 C.2     1  UNL1        0.3810
      2 N          61.8937   89.0600   11.4986 N.2     1  UNL1       -0.0328
      3 C          62.9531   90.0100   11.9732 C.2     1  UNL1        0.2318
      4 C          63.6226   90.1832   13.3042 C.2     1  UNL1        0.0495
      5 C          64.6699   91.2417   13.4849 C.2     1  UNL1       -0.0028
      6 C          65.0477   92.1270   12.3344 C.2     1  UNL1       -0.0198
      7 C          64.3782   91.9538   11.0034 C.3     1  UNL1        0.1011
      8 C          63.3309   90.8953   10.8227 C.2     1  UNL1        0.2172
      9 N          62.5050   90.4925    9.6372 N.2     1  UNL1       -0.0367
     10 C          60.1369   87.2410    9.3673 C.2     1  UNL1        0.0863
     11 C          59.1583   86.9420    8.2705 C.2     1  UNL1        0.1346
     12 N          59.0421   88.1633    7.4074 N.2     1  UNL1       -0.1491
     13 N          59.9489   89.2170    7.9708 N.2     1  UNL1       -0.1576
     14 C          60.6255   88.6470    9.1821 C.3     1  UNL1        0.2726
     15 O          62.5900   85.5471    9.0304 O.2     1  UNL1       -0.2525
     16 C          61.7802   85.4524   10.2895 C.2     1  UNL1        0.3043
     17 N          60.5537   86.2992   10.4579 N.am    1  UNL1       -0.2682
     18 N          62.1970   84.5106   11.3801 N.am    1  UNL1       -0.2903
     19 H          60.0223   86.2370   11.2843 H       1  UNL1        0.1562
     20 H          61.6655   84.4484   12.2065 H       1  UNL1        0.1509
     21 C          63.4235   83.6637   11.2116 C.3     1  UNL1        0.0732
     22 C          64.6702   83.0549   11.7819 C.3     1  UNL1        0.0213
     23 C          64.3013   82.8056   10.3495 C.3     1  UNL1        0.0213
     24 C          66.0950   93.1856   12.5151 C.3     1  UNL1        0.0954
     25 N          67.1354   93.0364   13.5853 N.3     1  UNL1       -0.2649
     26 C          67.0239   93.8272   14.8551 C.3     1  UNL1        0.1049
     27 C          68.0643   93.6779   15.9253 C.3     1  UNL1        0.1595
     28 O          69.2161   92.7380   15.7257 O.3     1  UNL1       -0.3508
     29 C          69.3276   91.9473   14.4560 C.3     1  UNL1        0.1595
     30 C          68.2872   92.0965   13.3858 C.3     1  UNL1        0.1049
@<TRIPOS>BOND
     1    15    16    2
     2    16    17   am
     3    17    10    1
     4    10    11    2
     5    11    12    1
     6    12    13    2
     7    13    14    1
     8    14     1    1
     9     1     2    2
    10     2     3    1
    11     3     4    2
    12     4     5    1
    13     5     6    2
    14     6    24    1
    15    24    25    1
    16    25    26    1
    17    26    27    1
    18    27    28    1
    19    28    29    1
    20    29    30    1
    21     6     7    1
    22     7     8    1
    23     8     9    2
    24    16    18   am
    25    18    21    1
    26    21    22    1
    27    22    23    1
    28    14    10    1
    29     9     1    1
    30    23    21    1
    31     8     3    1
    32    30    25    1
    33    17    19    1
    34    18    20    1
@<TRIPOS>MOLECULE
*****
 30 34 0 0 0
SMALL
GASTEIGER

@<TRIPOS>ATOM
      1 C          63.6744   84.9946   14.6056 C.2     1  UNL1        0.3810
      2 N          63.2152   85.5335   15.9280 N.2     1  UNL1       -0.0328
      3 C          63.3693   87.0253   15.8994 C.2     1  UNL1        0.2318
      4 C          63.0764   88.0843   16.9204 C.2     1  UNL1        0.0495
      5 C          63.3379   89.5265   16.6014 C.2     1  UNL1       -0.0028
      6 C          63.8924   89.9096   15.2613 C.2     1  UNL1       -0.0198
      7 C          64.1853   88.8506   14.2403 C.3     1  UNL1        0.1011
      8 C          63.9238   87.4084   14.5593 C.2     1  UNL1        0.2172
      9 N          64.1123   86.1534   13.7597 N.2     1  UNL1       -0.0367
     10 C          63.8622   83.0287   12.8042 C.2     1  UNL1        0.0863
     11 C          63.8187   81.5304   12.8609 C.2     1  UNL1        0.1346
     12 N          63.6222   81.1262   14.2920 N.2     1  UNL1       -0.1491
     13 N          63.5442   82.3747   15.1197 N.2     1  UNL1       -0.1576
     14 C          63.6926   83.5505   14.2002 C.3     1  UNL1        0.2726
     15 O          61.5322   84.5208   11.6445 O.2     1  UNL1       -0.2525
     16 C          62.8786   84.6053   10.9885 C.2     1  UNL1        0.3043
     17 N          64.0435   83.8593   11.5684 N.am    1  UNL1       -0.2682
     18 N          63.0599   85.4359    9.7527 N.am    1  UNL1       -0.2903
     19 H          64.9271   83.9148   11.1379 H       1  UNL1        0.1562
     20 H          63.9435   85.4914    9.3222 H       1  UNL1        0.1509
     21 C          61.8949   86.1819    9.1729 C.3     1  UNL1        0.0732
     22 C          60.7316   86.2428    8.2277 C.3     1  UNL1        0.0213
     23 C          61.0402   87.4132    9.1136 C.3     1  UNL1        0.0213
     24 C          64.1539   91.3518   14.9423 C.3     1  UNL1        0.0954
     25 N          65.3330   91.7309   14.0961 N.3     1  UNL1       -0.2649
     26 C          65.1208   92.2676   12.7116 C.3     1  UNL1        0.1049
     27 C          66.3000   92.6467   11.8654 C.3     1  UNL1        0.1595
     28 O          67.6911   92.4891   12.4037 O.3     1  UNL1       -0.3508
     29 C          67.9032   91.9524   13.7882 C.3     1  UNL1        0.1595
     30 C          66.7242   91.5733   14.6344 C.3     1  UNL1        0.1049
@<TRIPOS>BOND
     1    15    16    2
     2    16    17   am
     3    17    10    1
     4    10    11    2
     5    11    12    1
     6    12    13    2
     7    13    14    1
     8    14     1    1
     9     1     2    2
    10     2     3    1
    11     3     4    2
    12     4     5    1
    13     5     6    2
    14     6    24    1
    15    24    25    1
    16    25    26    1
    17    26    27    1
    18    27    28    1
    19    28    29    1
    20    29    30    1
    21     6     7    1
    22     7     8    1
    23     8     9    2
    24    16    18   am
    25    18    21    1
    26    21    22    1
    27    22    23    1
    28    14    10    1
    29     9     1    1
    30    23    21    1
    31     8     3    1
    32    30    25    1
    33    17    19    1
    34    18    20    1
@<TRIPOS>MOLECULE
*****
 30 34 0 0 0
SMALL
GASTEIGER

@<TRIPOS>ATOM
      1 C          64.2174   89.8237   14.4256 C.2     1  UNL1        0.3810
      2 N          64.3691   88.3766   14.7901 N.2     1  UNL1       -0.0328
      3 C          63.7899   87.5549   13.6769 C.2     1  UNL1        0.2318
      4 C          63.6607   86.0728   13.4857 C.2     1  UNL1        0.0495
      5 C          63.0219   85.5299   12.2418 C.2     1  UNL1       -0.0028
      6 C          62.5122   86.4692   11.1892 C.2     1  UNL1       -0.0198
      7 C          62.6414   87.9513   11.3804 C.3     1  UNL1        0.1011
      8 C          63.2802   88.4942   12.6242 C.2     1  UNL1        0.2172
      9 N          63.5445   89.8963   13.0870 N.2     1  UNL1       -0.0367
     10 C          65.9584   91.7321   15.1128 C.2     1  UNL1        0.0863
     11 C          65.9841   92.8241   16.1408 C.2     1  UNL1        0.1346
     12 N          64.7024   92.7598   16.9175 N.2     1  UNL1       -0.1491
     13 N          63.8847   91.6280   16.3695 N.2     1  UNL1       -0.1576
     14 C          64.6609   90.9928   15.2541 C.3     1  UNL1        0.2726
     15 O          65.9098   93.0273   12.4071 O.2     1  UNL1       -0.2525
     16 C          67.0160   92.0796   12.7653 C.2     1  UNL1        0.3043
     17 N          67.0403   91.4320   14.1180 N.am    1  UNL1       -0.2682
     18 N          68.0979   91.7795   11.7706 N.am    1  UNL1       -0.2903
     19 H          67.7663   90.8100   14.3531 H       1  UNL1        0.1562
     20 H          68.8239   91.1575   12.0056 H       1  UNL1        0.1509
     21 C          68.0736   92.4271   10.4178 C.3     1  UNL1        0.0732
     22 C          68.5234   92.4647    8.9873 C.3     1  UNL1        0.0213
     23 C          67.5817   93.5111    9.5051 C.3     1  UNL1        0.0213
     24 C          61.8734   85.9263    9.9453 C.3     1  UNL1        0.0954
     25 N          60.9325   86.7824    9.1504 N.3     1  UNL1       -0.2649
     26 C          59.9726   86.1480    8.1881 C.3     1  UNL1        0.1049
     27 C          59.0317   87.0042    7.3932 C.3     1  UNL1        0.1595
     28 O          59.0509   88.4947    7.5606 O.3     1  UNL1       -0.3508
     29 C          60.0108   89.1290    8.5229 C.3     1  UNL1        0.1595
     30 C          60.9516   88.2730    9.3178 C.3     1  UNL1        0.1049
@<TRIPOS>BOND
     1    15    16    2
     2    16    17   am
     3    17    10    1
     4    10    11    2
     5    11    12    1
     6    12    13    2
     7    13    14    1
     8    14     1    1
     9     1     2    2
    10     2     3    1
    11     3     4    2
    12     4     5    1
    13     5     6    2
    14     6    24    1
    15    24    25    1
    16    25    26    1
    17    26    27    1
    18    27    28    1
    19    28    29    1
    20    29    30    1
    21     6     7    1
    22     7     8    1
    23     8     9    2
    24    16    18   am
    25    18    21    1
    26    21    22    1
    27    22    23    1
    28    14    10    1
    29     9     1    1
    30    23    21    1
    31     8     3    1
    32    30    25    1
    33    17    19    1
    34    18    20    1
@<TRIPOS>MOLECULE
*****
 30 34 0 0 0
SMALL
GASTEIGER

@<TRIPOS>ATOM
      1 C          63.8365   85.3593   13.8163 C.2     1  UNL1        0.3810
      2 N          63.2560   86.2295   12.7413 N.2     1  UNL1       -0.0328
      3 C          63.5283   87.6591   13.1047 C.2     1  UNL1        0.2318
      4 C          63.1912   88.9505   12.4201 C.2     1  UNL1        0.0495
      5 C          63.6029   90.2551   13.0352 C.2     1  UNL1       -0.0028
      6 C          64.3516   90.2685   14.3349 C.2     1  UNL1       -0.0198
      7 C          64.6888   88.9771   15.0195 C.3     1  UNL1        0.1011
      8 C          64.2771   87.6725   14.4044 C.2     1  UNL1        0.2172
      9 N          64.4675   86.2511   14.8442 N.2     1  UNL1       -0.0367
     10 C          64.0820   82.9390   12.7086 C.2     1  UNL1        0.0863
     11 C          63.9212   81.5289   13.1942 C.2     1  UNL1        0.1346
     12 N          63.5333   81.5789   14.6423 N.2     1  UNL1       -0.1491
     13 N          63.4543   83.0198   15.0516 N.2     1  UNL1       -0.1576
     14 C          63.7935   83.8604   13.8565 C.3     1  UNL1        0.2726
     15 O          61.9973   84.0113   10.8366 O.2     1  UNL1       -0.2525
     16 C          63.4220   83.8908   10.3830 C.2     1  UNL1        0.3043
     17 N          64.4643   83.3547   11.3189 N.am    1  UNL1       -0.2682
     18 N          63.8043   84.3064    8.9933 N.am    1  UNL1       -0.2903
     19 H          65.3994   83.2756   11.0212 H       1  UNL1        0.1562
     20 H          64.7393   84.2274    8.6955 H       1  UNL1        0.1509
     21 C          62.7619   84.8425    8.0574 C.3     1  UNL1        0.0732
     22 C          62.1116   84.8530    6.7056 C.3     1  UNL1        0.0213
     23 C          61.6066   85.7606    7.7878 C.3     1  UNL1        0.0213
     24 C          64.7633   91.5732   14.9500 C.3     1  UNL1        0.0954
     25 N          66.1927   92.0211   14.8723 N.3     1  UNL1       -0.2649
     26 C          66.8094   92.7637   16.0204 C.3     1  UNL1        0.1049
     27 C          68.2390   93.2115   15.9428 C.3     1  UNL1        0.1595
     28 O          69.0517   92.9168   14.7170 O.3     1  UNL1       -0.3508
     29 C          68.4350   92.1741   13.5689 C.3     1  UNL1        0.1595
     30 C          67.0056   91.7263   13.6465 C.3     1  UNL1        0.1049
@<TRIPOS>BOND
     1    15    16    2
     2    16    17   am
     3    17    10    1
     4    10    11    2
     5    11    12    1
     6    12    13    2
     7    13    14    1
     8    14     1    1
     9     1     2    2
    10     2     3    1
    11     3     4    2
    12     4     5    1
    13     5     6    2
    14     6    24    1
    15    24    25    1
    16    25    26    1
    17    26    27    1
    18    27    28    1
    19    28    29    1
    20    29    30    1
    21     6     7    1
    22     7     8    1
    23     8     9    2
    24    16    18   am
    25    18    21    1
    26    21    22    1
    27    22    23    1
    28    14    10    1
    29     9     1    1
    30    23    21    1
    31     8     3    1
    32    30    25    1
    33    17    19    1
    34    18    20    1
