@<TRIPOS>MOLECULE
*****
 22 24 0 0 0
SMALL
GASTEIGER

@<TRIPOS>ATOM
      1 C          63.0974   88.6160   12.2843 C.ar    1  UNL1        0.0872
      2 C          62.1945   88.7069   11.0901 C.ar    1  UNL1        0.0508
      3 C          61.5841   87.4633   10.5149 C.ar    1  UNL1        0.1346
      4 N          61.8767   86.1287   11.1340 N.ar    1  UNL1       -0.2119
      5 C          62.7797   86.0378   12.3283 C.ar    1  UNL1        0.1634
      6 N          63.3900   87.2815   12.9035 N.ar    1  UNL1       -0.2290
      7 C          63.0723   84.7033   12.9475 C.ar    1  UNL1        0.0389
      8 C          63.6815   84.6289   14.3162 C.ar    1  UNL1        0.0237
      9 C          63.9741   83.2943   14.9354 C.ar    1  UNL1        0.0990
     10 N          63.6576   82.0341   14.1858 N.ar    1  UNL1       -0.2423
     11 C          63.0484   82.1086   12.8170 C.ar    1  UNL1        0.0990
     12 C          62.7558   83.4431   12.1979 C.ar    1  UNL1        0.0237
     13 N          60.6811   87.5542    9.3206 N.pl3   1  UNL1       -0.2932
     14 C          60.1820   88.8188    8.6868 C.3     1  UNL1        0.0922
     15 C          59.3111   88.4426    7.5249 C.3     1  UNL1        0.0232
     16 C          59.2720   86.9455    7.4405 C.3     1  UNL1        0.0232
     17 C          60.1187   86.3964    8.5503 C.3     1  UNL1        0.0922
     18 C          63.7078   89.8597   12.8595 C.3     1  UNL1        0.1963
     19 C          63.7344   90.2823   15.8295 C.3     1  UNL1        0.1765
     20 S          63.7211   90.0710   14.3444 S.O2    1  UNL1       -0.0025
     21 O          65.2057   90.2803   14.3014 O.2     1  UNL1       -0.1726
     22 O          62.2364   89.8617   14.3875 O.2     1  UNL1       -0.1726
@<TRIPOS>BOND
     1    19    20    1
     2    20    21    2
     3    20    22    2
     4    20    18    1
     5    18     1    1
     6     1     2   ar
     7     2     3   ar
     8     3    13    1
     9    13    14    1
    10    14    15    1
    11    15    16    1
    12    16    17    1
    13     3     4   ar
    14     4     5   ar
    15     5     7    1
    16     7     8   ar
    17     8     9   ar
    18     9    10   ar
    19    10    11   ar
    20    11    12   ar
    21     5     6   ar
    22     6     1   ar
    23    17    13    1
    24    12     7   ar
@<TRIPOS>MOLECULE
*****
 22 24 0 0 0
SMALL
GASTEIGER

@<TRIPOS>ATOM
      1 C          62.5616   85.8053   12.0942 C.ar    1  UNL1        0.0872
      2 C          61.6585   85.9999   10.9125 C.ar    1  UNL1        0.0508
      3 C          61.4350   87.3755   10.3578 C.ar    1  UNL1        0.1346
      4 N          62.1146   88.5566   10.9848 N.ar    1  UNL1       -0.2119
      5 C          63.0177   88.3620   12.1665 C.ar    1  UNL1        0.1634
      6 N          63.2412   86.9864   12.7212 N.ar    1  UNL1       -0.2290
      7 C          63.6974   89.5431   12.7936 C.ar    1  UNL1        0.0389
      8 C          63.8566   90.8164   12.0169 C.ar    1  UNL1        0.0237
      9 C          64.5362   91.9975   12.6440 C.ar    1  UNL1        0.0990
     10 N          65.0566   91.9052   14.0478 N.ar    1  UNL1       -0.2423
     11 C          64.8974   90.6318   14.8245 C.ar    1  UNL1        0.0990
     12 C          64.2177   89.4508   14.1974 C.ar    1  UNL1        0.0237
     13 N          60.5318   87.5701    9.1760 N.pl3   1  UNL1       -0.2932
     14 C          59.8453   86.4835    8.4027 C.3     1  UNL1        0.0922
     15 C          59.0458   87.1273    7.3088 C.3     1  UNL1        0.0232
     16 C          59.2383   88.6117    7.4062 C.3     1  UNL1        0.0232
     17 C          60.1567   88.8854    8.5601 C.3     1  UNL1        0.0922
     18 C          62.7851   84.4297   12.6488 C.3     1  UNL1        0.1963
     19 C          64.0160   84.0886   15.3634 C.3     1  UNL1        0.1765
     20 S          63.4006   84.2591   14.0061 S.O2    1  UNL1       -0.0025
     21 O          62.0788   84.5682   14.6443 O.2     1  UNL1       -0.1726
     22 O          64.7223   83.9501   13.3679 O.2     1  UNL1       -0.1726
@<TRIPOS>BOND
     1    19    20    1
     2    20    21    2
     3    20    22    2
     4    20    18    1
     5    18     1    1
     6     1     2   ar
     7     2     3   ar
     8     3    13    1
     9    13    14    1
    10    14    15    1
    11    15    16    1
    12    16    17    1
    13     3     4   ar
    14     4     5   ar
    15     5     7    1
    16     7     8   ar
    17     8     9   ar
    18     9    10   ar
    19    10    11   ar
    20    11    12   ar
    21     5     6   ar
    22     6     1   ar
    23    17    13    1
    24    12     7   ar
@<TRIPOS>MOLECULE
*****
 22 24 0 0 0
SMALL
GASTEIGER

@<TRIPOS>ATOM
      1 C          63.7183   86.5580   13.5473 C.ar    1  UNL1        0.0872
      2 C          63.6146   85.0704   13.7090 C.ar    1  UNL1        0.0508
      3 C          62.7844   84.2679   12.7515 C.ar    1  UNL1        0.1346
      4 N          62.0578   84.9531   11.6324 N.ar    1  UNL1       -0.2119
      5 C          62.1614   86.4407   11.4707 C.ar    1  UNL1        0.1634
      6 N          62.9916   87.2431   12.4281 N.ar    1  UNL1       -0.2290
      7 C          61.4347   87.1259   10.3515 C.ar    1  UNL1        0.0389
      8 C          60.8050   86.3145    9.2583 C.ar    1  UNL1        0.0237
      9 C          60.0784   86.9997    8.1391 C.ar    1  UNL1        0.0990
     10 N          59.9815   88.4964    8.1132 N.ar    1  UNL1       -0.2423
     11 C          60.6113   89.3078    9.2064 C.ar    1  UNL1        0.0990
     12 C          61.3379   88.6226   10.3255 C.ar    1  UNL1        0.0237
     13 N          62.6808   82.7802   12.9133 N.pl3   1  UNL1       -0.2932
     14 C          62.9535   81.7567   11.8512 C.3     1  UNL1        0.0922
     15 C          62.7275   80.3988   12.4470 C.3     1  UNL1        0.0232
     16 C          62.3151   80.5831   13.8774 C.3     1  UNL1        0.0232
     17 C          62.2862   82.0548   14.1655 C.3     1  UNL1        0.0922
     18 C          64.5485   87.3605   14.5047 C.3     1  UNL1        0.1963
     19 C          63.3634   89.7481   15.8814 C.3     1  UNL1        0.1765
     20 S          63.9560   88.5542   15.1930 S.O2    1  UNL1       -0.0025
     21 O          63.2626   87.6485   16.1671 O.2     1  UNL1       -0.1726
     22 O          64.6494   89.4600   14.2190 O.2     1  UNL1       -0.1726
@<TRIPOS>BOND
     1    19    20    1
     2    20    21    2
     3    20    22    2
     4    20    18    1
     5    18     1    1
     6     1     2   ar
     7     2     3   ar
     8     3    13    1
     9    13    14    1
    10    14    15    1
    11    15    16    1
    12    16    17    1
    13     3     4   ar
    14     4     5   ar
    15     5     7    1
    16     7     8   ar
    17     8     9   ar
    18     9    10   ar
    19    10    11   ar
    20    11    12   ar
    21     5     6   ar
    22     6     1   ar
    23    17    13    1
    24    12     7   ar
@<TRIPOS>MOLECULE
*****
 22 24 0 0 0
SMALL
GASTEIGER

@<TRIPOS>ATOM
      1 C          63.0583   85.4361   12.8290 C.ar    1  UNL1        0.0872
      2 C          62.1744   85.3964   11.6178 C.ar    1  UNL1        0.0508
      3 C          61.8321   86.6666   10.8971 C.ar    1  UNL1        0.1346
      4 N          62.3737   87.9765   11.3877 N.ar    1  UNL1       -0.2119
      5 C          63.2576   88.0163   12.5989 C.ar    1  UNL1        0.1634
      6 N          63.5999   86.7461   13.3196 N.ar    1  UNL1       -0.2290
      7 C          63.7993   89.3263   13.0895 C.ar    1  UNL1        0.0389
      8 C          64.3887   89.4262   14.4651 C.ar    1  UNL1        0.0237
      9 C          64.9304   90.7361   14.9557 C.ar    1  UNL1        0.0990
     10 N          64.8826   91.9462   14.0706 N.ar    1  UNL1       -0.2423
     11 C          64.2931   91.8462   12.6948 C.ar    1  UNL1        0.0990
     12 C          63.7515   90.5363   12.2043 C.ar    1  UNL1        0.0237
     13 N          60.9481   86.6268    9.6858 N.pl3   1  UNL1       -0.2932
     14 C          59.7216   87.4606    9.4617 C.3     1  UNL1        0.0922
     15 C          59.1510   87.0954    8.1234 C.3     1  UNL1        0.0232
     16 C          60.0249   86.0358    7.5204 C.3     1  UNL1        0.0232
     17 C          61.1356   85.7462    8.4861 C.3     1  UNL1        0.0922
     18 C          63.4005   84.1659   13.5497 C.3     1  UNL1        0.1963
     19 C          63.1932   81.5321   12.1283 C.3     1  UNL1        0.1765
     20 S          63.2968   82.8491   12.8391 S.O2    1  UNL1       -0.0025
     21 O          64.4829   83.2111   11.9952 O.2     1  UNL1       -0.1726
     22 O          62.1108   82.4871   13.6829 O.2     1  UNL1       -0.1726
@<TRIPOS>BOND
     1    19    20    1
     2    20    21    2
     3    20    22    2
     4    20    18    1
     5    18     1    1
     6     1     2   ar
     7     2     3   ar
     8     3    13    1
     9    13    14    1
    10    14    15    1
    11    15    16    1
    12    16    17    1
    13     3     4   ar
    14     4     5   ar
    15     5     7    1
    16     7     8   ar
    17     8     9   ar
    18     9    10   ar
    19    10    11   ar
    20    11    12   ar
    21     5     6   ar
    22     6     1   ar
    23    17    13    1
    24    12     7   ar
@<TRIPOS>MOLECULE
*****
 22 24 0 0 0
SMALL
GASTEIGER

@<TRIPOS>ATOM
      1 C          64.0086   86.1525   14.0254 C.ar    1  UNL1        0.0872
      2 C          64.4476   87.4296   14.6781 C.ar    1  UNL1        0.0508
      3 C          64.0618   88.7494   14.0788 C.ar    1  UNL1        0.1346
      4 N          63.2370   88.7921   12.8267 N.ar    1  UNL1       -0.2119
      5 C          62.7980   87.5150   12.1739 C.ar    1  UNL1        0.1634
      6 N          63.1838   86.1951   12.7733 N.ar    1  UNL1       -0.2290
      7 C          61.9731   87.5576   10.9218 C.ar    1  UNL1        0.0389
      8 C          61.5011   88.8738   10.3790 C.ar    1  UNL1        0.0237
      9 C          60.6763   88.9165    9.1268 C.ar    1  UNL1        0.0990
     10 N          60.3235   87.6428    8.4175 N.ar    1  UNL1       -0.2423
     11 C          60.7955   86.3264    8.9603 C.ar    1  UNL1        0.0990
     12 C          61.6203   86.2839   10.2124 C.ar    1  UNL1        0.0237
     13 N          64.5009   90.0266   14.7316 N.pl3   1  UNL1       -0.2932
     14 C          65.6836   90.8590   14.3337 C.3     1  UNL1        0.0922
     15 C          65.7479   92.0424   15.2531 C.3     1  UNL1        0.0232
     16 C          64.6049   91.9415   16.2193 C.3     1  UNL1        0.0232
     17 C          63.8342   90.6957   15.8969 C.3     1  UNL1        0.0922
     18 C          64.3944   84.8327   14.6248 C.3     1  UNL1        0.1963
     19 C          62.4421   82.5548   14.6196 C.3     1  UNL1        0.1765
     20 S          63.4183   83.6937   14.6222 S.O2    1  UNL1       -0.0025
     21 O          62.5934   84.3984   15.6579 O.2     1  UNL1       -0.1726
     22 O          64.2433   82.9891   13.5864 O.2     1  UNL1       -0.1726
@<TRIPOS>BOND
     1    19    20    1
     2    20    21    2
     3    20    22    2
     4    20    18    1
     5    18     1    1
     6     1     2   ar
     7     2     3   ar
     8     3    13    1
     9    13    14    1
    10    14    15    1
    11    15    16    1
    12    16    17    1
    13     3     4   ar
    14     4     5   ar
    15     5     7    1
    16     7     8   ar
    17     8     9   ar
    18     9    10   ar
    19    10    11   ar
    20    11    12   ar
    21     5     6   ar
    22     6     1   ar
    23    17    13    1
    24    12     7   ar
@<TRIPOS>MOLECULE
*****
 22 24 0 0 0
SMALL
GASTEIGER

@<TRIPOS>ATOM
      1 C          62.0310   86.5971    9.8551 C.ar    1  UNL1        0.0872
      2 C          62.0429   85.2847   10.5813 C.ar    1  UNL1        0.0508
      3 C          62.5362   85.2148   11.9961 C.ar    1  UNL1        0.1346
      4 N          63.0175   86.4573   12.6848 N.ar    1  UNL1       -0.2119
      5 C          63.0056   87.7698   11.9587 C.ar    1  UNL1        0.1634
      6 N          62.5123   87.8397   10.5438 N.ar    1  UNL1       -0.2290
      7 C          63.4869   89.0124   12.6474 C.ar    1  UNL1        0.0389
      8 C          64.0481   88.9307   14.0360 C.ar    1  UNL1        0.0237
      9 C          64.5295   90.1734   14.7247 C.ar    1  UNL1        0.0990
     10 N          64.4496   91.4976   14.0247 N.ar    1  UNL1       -0.2423
     11 C          63.8883   91.5792   12.6360 C.ar    1  UNL1        0.0990
     12 C          63.4070   90.3366   11.9474 C.ar    1  UNL1        0.0237
     13 N          62.5481   83.9023   12.7223 N.pl3   1  UNL1       -0.2932
     14 C          62.4799   83.7166   14.2091 C.3     1  UNL1        0.0922
     15 C          62.5200   82.2446   14.4948 C.3     1  UNL1        0.0232
     16 C          62.6130   81.5205   13.1844 C.3     1  UNL1        0.0232
     17 C          62.6304   82.5450   12.0889 C.3     1  UNL1        0.0922
     18 C          61.5377   86.6670    8.4403 C.3     1  UNL1        0.1963
     19 C          58.5924   86.7880    7.8828 C.3     1  UNL1        0.1765
     20 S          60.0651   86.7275    8.1615 S.O2    1  UNL1       -0.0025
     21 O          60.1785   85.5068    7.2973 O.2     1  UNL1       -0.1726
     22 O          59.9517   87.9483    9.0258 O.2     1  UNL1       -0.1726
@<TRIPOS>BOND
     1    19    20    1
     2    20    21    2
     3    20    22    2
     4    20    18    1
     5    18     1    1
     6     1     2   ar
     7     2     3   ar
     8     3    13    1
     9    13    14    1
    10    14    15    1
    11    15    16    1
    12    16    17    1
    13     3     4   ar
    14     4     5   ar
    15     5     7    1
    16     7     8   ar
    17     8     9   ar
    18     9    10   ar
    19    10    11   ar
    20    11    12   ar
    21     5     6   ar
    22     6     1   ar
    23    17    13    1
    24    12     7   ar
@<TRIPOS>MOLECULE
*****
 22 24 0 0 0
SMALL
GASTEIGER

@<TRIPOS>ATOM
      1 C          61.5522   86.6808   10.1384 C.ar    1  UNL1        0.0872
      2 C          62.1167   87.9440   10.7176 C.ar    1  UNL1        0.0508
      3 C          62.8948   87.8993   11.9992 C.ar    1  UNL1        0.1346
      4 N          63.1084   86.5913   12.7017 N.ar    1  UNL1       -0.2119
      5 C          62.5438   85.3281   12.1226 C.ar    1  UNL1        0.1634
      6 N          61.7657   85.3728   10.8409 N.ar    1  UNL1       -0.2290
      7 C          62.7574   84.0200   12.8251 C.ar    1  UNL1        0.0389
      8 C          62.9334   83.9885   14.3143 C.ar    1  UNL1        0.0237
      9 C          63.1469   82.6804   15.0168 C.ar    1  UNL1        0.0990
     10 N          63.1844   81.4039   14.2300 N.ar    1  UNL1       -0.2423
     11 C          63.0084   81.4355   12.7406 C.ar    1  UNL1        0.0990
     12 C          62.7949   82.7435   12.0382 C.ar    1  UNL1        0.0237
     13 N          63.4594   89.1627   12.5783 N.pl3   1  UNL1       -0.2932
     14 C          64.0789   89.3102   13.9364 C.3     1  UNL1        0.0922
     15 C          64.5060   90.7389   14.0984 C.3     1  UNL1        0.0232
     16 C          64.1504   91.4745   12.8403 C.3     1  UNL1        0.0232
     17 C          63.5036   90.5003   11.9009 C.3     1  UNL1        0.0922
     18 C          60.7740   86.7255    8.8568 C.3     1  UNL1        0.1963
     19 C          61.4253   84.8131    6.6391 C.3     1  UNL1        0.1765
     20 S          61.0996   85.7693    7.7480 S.O2    1  UNL1       -0.0025
     21 O          62.5442   85.7939    8.1510 O.2     1  UNL1       -0.1726
     22 O          59.6550   85.7447    7.3450 O.2     1  UNL1       -0.1726
@<TRIPOS>BOND
     1    19    20    1
     2    20    21    2
     3    20    22    2
     4    20    18    1
     5    18     1    1
     6     1     2   ar
     7     2     3   ar
     8     3    13    1
     9    13    14    1
    10    14    15    1
    11    15    16    1
    12    16    17    1
    13     3     4   ar
    14     4     5   ar
    15     5     7    1
    16     7     8   ar
    17     8     9   ar
    18     9    10   ar
    19    10    11   ar
    20    11    12   ar
    21     5     6   ar
    22     6     1   ar
    23    17    13    1
    24    12     7   ar
@<TRIPOS>MOLECULE
*****
 22 24 0 0 0
SMALL
GASTEIGER

@<TRIPOS>ATOM
      1 C          64.3901   91.1898   13.6340 C.ar    1  UNL1        0.0872
      2 C          65.2475   92.1647   12.8828 C.ar    1  UNL1        0.0508
      3 C          65.1098   92.2931   11.3947 C.ar    1  UNL1        0.1346
      4 N          64.1147   91.4466   10.6578 N.ar    1  UNL1       -0.2119
      5 C          63.2573   90.4717   11.4090 C.ar    1  UNL1        0.1634
      6 N          63.3950   90.3433   12.8971 N.ar    1  UNL1       -0.2290
      7 C          62.2621   89.6251   10.6721 C.ar    1  UNL1        0.0389
      8 C          62.4188   88.1336   10.6474 C.ar    1  UNL1        0.0237
      9 C          61.4236   87.2870    9.9104 C.ar    1  UNL1        0.0990
     10 N          60.2717   87.9320    9.1983 N.ar    1  UNL1       -0.2423
     11 C          60.1151   89.4237    9.2230 C.ar    1  UNL1        0.0990
     12 C          61.1103   90.2702    9.9599 C.ar    1  UNL1        0.0237
     13 N          65.9673   93.2681   10.6435 N.pl3   1  UNL1       -0.2932
     14 C          65.7300   94.7447   10.5285 C.3     1  UNL1        0.0922
     15 C          66.8286   95.3268    9.6893 C.3     1  UNL1        0.0232
     16 C          67.7450   94.2099    9.2856 C.3     1  UNL1        0.0232
     17 C          67.2126   92.9375    9.8754 C.3     1  UNL1        0.0922
     18 C          64.5279   91.0615   15.1222 C.3     1  UNL1        0.1963
     19 C          63.0757   88.8784   16.5802 C.3     1  UNL1        0.1765
     20 S          63.8018   89.9700   15.8512 S.O2    1  UNL1       -0.0025
     21 O          64.4872   88.9442   14.9980 O.2     1  UNL1       -0.1726
     22 O          63.1164   90.9958   16.7044 O.2     1  UNL1       -0.1726
@<TRIPOS>BOND
     1    19    20    1
     2    20    21    2
     3    20    22    2
     4    20    18    1
     5    18     1    1
     6     1     2   ar
     7     2     3   ar
     8     3    13    1
     9    13    14    1
    10    14    15    1
    11    15    16    1
    12    16    17    1
    13     3     4   ar
    14     4     5   ar
    15     5     7    1
    16     7     8   ar
    17     8     9   ar
    18     9    10   ar
    19    10    11   ar
    20    11    12   ar
    21     5     6   ar
    22     6     1   ar
    23    17    13    1
    24    12     7   ar
@<TRIPOS>MOLECULE
*****
 22 24 0 0 0
SMALL
GASTEIGER

@<TRIPOS>ATOM
      1 C          62.8655   89.8687   12.0652 C.ar    1  UNL1        0.0872
      2 C          61.9600   89.6316   10.8931 C.ar    1  UNL1        0.0508
      3 C          61.5863   88.2316   10.5051 C.ar    1  UNL1        0.1346
      4 N          62.1180   87.0688   11.2893 N.ar    1  UNL1       -0.2119
      5 C          63.0235   87.3059   12.4614 C.ar    1  UNL1        0.1634
      6 N          63.3972   88.7058   12.8494 N.ar    1  UNL1       -0.2290
      7 C          63.5552   86.1430   13.2457 C.ar    1  UNL1        0.0389
      8 C          63.3845   84.7465   12.7253 C.ar    1  UNL1        0.0237
      9 C          63.9163   83.5836   13.5096 C.ar    1  UNL1        0.0990
     10 N          64.6188   83.8172   14.8141 N.ar    1  UNL1       -0.2423
     11 C          64.7895   85.2138   15.3344 C.ar    1  UNL1        0.0990
     12 C          64.2578   86.3766   14.5502 C.ar    1  UNL1        0.0237
     13 N          60.6808   87.9946    9.3329 N.pl3   1  UNL1       -0.2932
     14 C          60.0820   89.0519    8.4534 C.3     1  UNL1        0.0922
     15 C          59.2463   88.3694    7.4114 C.3     1  UNL1        0.0232
     16 C          59.3286   86.8902    7.6470 C.3     1  UNL1        0.0232
     17 C          60.2151   86.6586    8.8345 C.3     1  UNL1        0.0922
     18 C          63.2392   91.2686   12.4532 C.3     1  UNL1        0.1963
     19 C          66.1285   92.0591   12.6172 C.3     1  UNL1        0.1765
     20 S          64.6838   91.6638   12.5352 S.O2    1  UNL1       -0.0025
     21 O          64.7496   91.7339   11.0383 O.2     1  UNL1       -0.1726
     22 O          64.6180   91.5937   14.0321 O.2     1  UNL1       -0.1726
@<TRIPOS>BOND
     1    19    20    1
     2    20    21    2
     3    20    22    2
     4    20    18    1
     5    18     1    1
     6     1     2   ar
     7     2     3   ar
     8     3    13    1
     9    13    14    1
    10    14    15    1
    11    15    16    1
    12    16    17    1
    13     3     4   ar
    14     4     5   ar
    15     5     7    1
    16     7     8   ar
    17     8     9   ar
    18     9    10   ar
    19    10    11   ar
    20    11    12   ar
    21     5     6   ar
    22     6     1   ar
    23    17    13    1
    24    12     7   ar
