@<TRIPOS>MOLECULE
*****
 36 41 0 0 0
SMALL
GASTEIGER

@<TRIPOS>ATOM
      1 N          62.6104   86.2135   11.7101 N.ar    1  UNL1       -0.3132
      2 C          62.9730   84.7803   11.9642 C.ar    1  UNL1        0.0804
      3 C          62.6406   83.5155   11.2295 C.ar    1  UNL1        0.1160
      4 N          63.1561   82.1992   11.7311 N.ar    1  UNL1       -0.2408
      5 C          64.0041   82.1478   12.9674 C.ar    1  UNL1        0.0990
      6 C          64.3364   83.4126   13.7021 C.ar    1  UNL1        0.0223
      7 C          63.8209   84.7288   13.2005 C.ar    1  UNL1        0.0233
      8 C          63.9824   86.1302   13.7104 C.ar    1  UNL1        0.0549
      9 C          64.7140   86.6893   14.8946 C.ar    1  UNL1        0.1048
     10 N          64.6974   88.1660   15.1576 N.ar    1  UNL1       -0.2119
     11 C          63.9493   89.0835   14.2366 C.ar    1  UNL1        0.2231
     12 N          63.2177   88.5244   13.0524 N.ar    1  UNL1       -0.1961
     13 C          63.2343   87.0478   12.7894 C.ar    1  UNL1        0.1482
     14 C          59.2571   87.2252    7.1743 C.3     1  UNL1        0.0000
     15 C          60.0932   87.7418    8.3075 C.3     1  UNL1        0.0001
     16 C          59.6436   89.0390    7.7030 C.3     1  UNL1        0.0000
     17 C          60.7731   88.7089    9.2308 C.3     1  UNL1        0.0019
     18 C          61.6121   88.1995   10.3650 C.3     1  UNL1        0.0226
     19 C          61.7714   86.7229   10.5759 C.3     1  UNL1        0.0869
     20 C          61.0915   85.7559    9.6527 C.3     1  UNL1        0.0226
     21 C          60.2524   86.2653    8.5184 C.3     1  UNL1        0.0019
     22 N          63.9328   90.5602   14.4996 N.pl3   1  UNL1       -0.2679
     23 H          63.5015   90.9107   15.3122 H       1  UNL1        0.1565
     24 C          64.5735   91.5029   13.5245 C.ar    1  UNL1        0.1344
     25 C          64.2132   91.4366   12.0700 C.ar    1  UNL1        0.0358
     26 C          64.8539   92.3794   11.0948 C.ar    1  UNL1        0.0190
     27 C          65.8548   93.3884   11.5743 C.ar    1  UNL1        0.0675
     28 C          66.2151   93.4547   13.0290 C.ar    1  UNL1        0.1147
     29 N          65.5744   92.5120   14.0040 N.ar    1  UNL1       -0.2277
     30 N          66.4955   94.3311   10.5992 N.pl3   1  UNL1       -0.3035
     31 C          66.4055   95.8123   10.8184 C.3     1  UNL1        0.1079
     32 C          67.0462   96.7550    9.8434 C.3     1  UNL1        0.0903
     33 N          67.7769   96.2166    8.6491 N.3     1  UNL1       -0.2946
     34 C          67.8669   94.7354    8.4299 C.3     1  UNL1        0.0903
     35 C          67.2262   93.7927    9.4050 C.3     1  UNL1        0.1079
     36 H          68.7340   96.5642    8.7081 H       1  UNL1        0.1233
@<TRIPOS>BOND
     1    14    15    1
     2    15    16    1
     3    15    17    1
     4    17    18    1
     5    18    19    1
     6    19     1    1
     7     1     2   ar
     8     2     3   ar
     9     3     4   ar
    10     4     5   ar
    11     5     6   ar
    12     6     7   ar
    13     7     8   ar
    14     8     9   ar
    15     9    10   ar
    16    10    11   ar
    17    11    22    1
    18    22    24    1
    19    24    25   ar
    20    25    26   ar
    21    26    27   ar
    22    27    30    1
    23    30    31    1
    24    31    32    1
    25    32    33    1
    26    33    34    1
    27    34    35    1
    28    27    28   ar
    29    28    29   ar
    30    11    12   ar
    31    12    13   ar
    32    19    20    1
    33    20    21    1
    34    21    15    1
    35    13     1   ar
    36     7     2   ar
    37    13     8   ar
    38    29    24   ar
    39    35    30    1
    40    22    23    1
    41    33    36    1
