@<TRIPOS>MOLECULE
*****
 30 33 0 0 0
SMALL
GASTEIGER

@<TRIPOS>ATOM
      1 C          64.7169   90.6587   14.3671 C.3     1  UNL1        0.2129
      2 C          64.2107   89.3532   13.8293 C.ar    1  UNL1        0.1110
      3 N          63.4169   89.1666   12.5703 N.ar    1  UNL1       -0.2412
      4 C          63.1251   87.7031   12.4189 C.ar    1  UNL1        0.0875
      5 C          62.3800   86.9314   11.3704 C.ar    1  UNL1        0.0196
      6 C          62.2483   85.4418   11.4873 C.ar    1  UNL1        0.0016
      7 C          62.8617   84.7239   12.6528 C.ar    1  UNL1        0.0006
      8 C          63.6068   85.4955   13.7013 C.ar    1  UNL1        0.0080
      9 C          63.7385   86.9851   13.5843 C.ar    1  UNL1        0.0482
     10 S          64.4094   88.0049   14.4560 S.2     1  UNL1       -0.0693
     11 C          62.7300   83.2342   12.7697 C.ar    1  UNL1        0.0000
     12 C          63.1045   82.3551   11.6135 C.ar    1  UNL1        0.0000
     13 C          62.9728   80.8654   11.7304 C.ar    1  UNL1        0.0000
     14 C          62.4666   80.2549   13.0036 C.ar    1  UNL1        0.0000
     15 C          62.0921   81.1341   14.1599 C.ar    1  UNL1        0.0000
     16 C          62.2238   82.6237   14.0429 C.ar    1  UNL1        0.0000
     17 C          65.8679   91.3498   13.6981 C.2     1  UNL1        0.2430
     18 O          67.2283   91.3233   14.3295 O.2     1  UNL1       -0.2735
     19 N          65.6585   92.0673   12.3976 N.am    1  UNL1       -0.2955
     20 H          64.7657   92.0847   11.9831 H       1  UNL1        0.1499
     21 C          66.8096   92.7584   11.7285 C.3     1  UNL1        0.1757
     22 C          66.6041   94.0897   11.0687 C.2     1  UNL1        0.2425
     23 O          66.0688   95.2451   11.8615 O.2     1  UNL1       -0.2733
     24 N          66.9340   94.2657    9.6160 N.am    1  UNL1       -0.3046
     25 H          67.2853   93.5074    9.0957 H       1  UNL1        0.1494
     26 C          66.7285   95.5970    8.9562 C.3     1  UNL1        0.0717
     27 C          65.8376   96.7553    8.6176 C.3     1  UNL1        0.0213
     28 C          67.2635   96.7445    8.1519 C.3     1  UNL1        0.0213
     29 N          63.4274   91.8878   16.7810 N.1     1  UNL1       -0.1950
     30 C          64.0722   91.2732   15.5740 C.1     1  UNL1        0.0881
@<TRIPOS>BOND
     1    29    30    3
     2    30     1    1
     3     1    17    1
     4    17    18    2
     5    17    19   am
     6    19    21    1
     7    21    22    1
     8    22    23    2
     9    22    24   am
    10    24    26    1
    11    26    27    1
    12    27    28    1
    13     1     2    1
    14     2     3   ar
    15     3     4   ar
    16     4     5   ar
    17     5     6   ar
    18     6     7   ar
    19     7    11    1
    20    11    12   ar
    21    12    13   ar
    22    13    14   ar
    23    14    15   ar
    24    15    16   ar
    25     7     8   ar
    26     8     9   ar
    27     9    10   ar
    28    28    26    1
    29    10     2   ar
    30     9     4   ar
    31    16    11   ar
    32    19    20    1
    33    24    25    1
@<TRIPOS>MOLECULE
*****
 30 33 0 0 0
SMALL
GASTEIGER

@<TRIPOS>ATOM
      1 C          62.2384   90.2271   11.4361 C.3     1  UNL1        0.2129
      2 C          62.5536   88.8193   11.8469 C.ar    1  UNL1        0.1110
      3 N          63.4636   88.4105   12.9671 N.ar    1  UNL1       -0.2412
      4 C          63.4866   86.9117   13.0221 C.ar    1  UNL1        0.0875
      5 C          64.2075   85.9513   13.9210 C.ar    1  UNL1        0.0196
      6 C          64.0326   84.4734   13.7337 C.ar    1  UNL1        0.0016
      7 C          63.1368   83.9558   12.6475 C.ar    1  UNL1        0.0006
      8 C          62.4160   84.9162   11.7487 C.ar    1  UNL1        0.0080
      9 C          62.5908   86.3941   11.9360 C.ar    1  UNL1        0.0482
     10 S          62.0142   87.5731   11.2096 S.2     1  UNL1       -0.0693
     11 C          62.9620   82.4778   12.4602 C.ar    1  UNL1        0.0000
     12 C          62.5535   81.6181   13.6195 C.ar    1  UNL1        0.0000
     13 C          62.3786   80.1401   13.4322 C.ar    1  UNL1        0.0000
     14 C          62.6123   79.5219   12.0856 C.ar    1  UNL1        0.0000
     15 C          63.0208   80.3817   10.9263 C.ar    1  UNL1        0.0000
     16 C          63.1957   81.8597   11.1136 C.ar    1  UNL1        0.0000
     17 C          63.3501   91.2045   11.1938 C.2     1  UNL1        0.2430
     18 O          63.5127   91.8357    9.8428 O.2     1  UNL1       -0.2735
     19 N          64.2992   91.5507   12.3026 N.am    1  UNL1       -0.2955
     20 H          64.1925   91.1364   13.1892 H       1  UNL1        0.1499
     21 C          65.4110   92.5281   12.0603 C.3     1  UNL1        0.1757
     22 C          66.6020   92.5504   12.9719 C.2     1  UNL1        0.2425
     23 O          67.9059   91.9651   12.5168 O.2     1  UNL1       -0.2733
     24 N          66.4890   93.1580   14.3387 N.am    1  UNL1       -0.3046
     25 H          65.6332   93.5422   14.6374 H       1  UNL1        0.1494
     26 C          67.6799   93.1803   15.2503 C.3     1  UNL1        0.0717
     27 C          68.7336   93.9478   15.9925 C.3     1  UNL1        0.0213
     28 C          68.6891   92.4515   16.0871 C.3     1  UNL1        0.0213
     29 N          59.3843   91.0879   11.0989 N.1     1  UNL1       -0.1950
     30 C          60.8114   90.6574   11.2675 C.1     1  UNL1        0.0881
@<TRIPOS>BOND
     1    29    30    3
     2    30     1    1
     3     1    17    1
     4    17    18    2
     5    17    19   am
     6    19    21    1
     7    21    22    1
     8    22    23    2
     9    22    24   am
    10    24    26    1
    11    26    27    1
    12    27    28    1
    13     1     2    1
    14     2     3   ar
    15     3     4   ar
    16     4     5   ar
    17     5     6   ar
    18     6     7   ar
    19     7    11    1
    20    11    12   ar
    21    12    13   ar
    22    13    14   ar
    23    14    15   ar
    24    15    16   ar
    25     7     8   ar
    26     8     9   ar
    27     9    10   ar
    28    28    26    1
    29    10     2   ar
    30     9     4   ar
    31    16    11   ar
    32    19    20    1
    33    24    25    1
@<TRIPOS>MOLECULE
*****
 30 33 0 0 0
SMALL
GASTEIGER

@<TRIPOS>ATOM
      1 C          61.0732   88.3139   11.4021 C.3     1  UNL1        0.2129
      2 C          62.1071   89.3952   11.5118 C.ar    1  UNL1        0.1110
      3 N          62.9461   89.6938   12.7188 N.ar    1  UNL1       -0.2412
      4 C          63.8410   90.8509   12.3866 C.ar    1  UNL1        0.0875
      5 C          64.8792   91.5790   13.1878 C.ar    1  UNL1        0.0196
      6 C          65.6316   92.7236   12.5765 C.ar    1  UNL1        0.0016
      7 C          65.3457   93.1402   11.1642 C.ar    1  UNL1        0.0006
      8 C          64.3075   92.4120   10.3630 C.ar    1  UNL1        0.0080
      9 C          63.5551   91.2674   10.9743 C.ar    1  UNL1        0.0482
     10 S          62.4835   90.3678   10.4336 S.2     1  UNL1       -0.0693
     11 C          66.0982   94.2849   10.5529 C.ar    1  UNL1        0.0000
     12 C          66.9463   94.0605    9.3363 C.ar    1  UNL1        0.0000
     13 C          67.6988   95.2052    8.7251 C.ar    1  UNL1        0.0000
     14 C          67.6030   96.5743    9.3305 C.ar    1  UNL1        0.0000
     15 C          66.7548   96.7986   10.5472 C.ar    1  UNL1        0.0000
     16 C          66.0024   95.6539   11.1584 C.ar    1  UNL1        0.0000
     17 C          61.3763   87.0616   10.6342 C.2     1  UNL1        0.2430
     18 O          60.5493   86.6973    9.4369 O.2     1  UNL1       -0.2735
     19 N          62.5063   86.1735   11.0635 N.am    1  UNL1       -0.2955
     20 H          63.0491   86.4125   11.8493 H       1  UNL1        0.1499
     21 C          62.8093   84.9211   10.2955 C.3     1  UNL1        0.1757
     22 C          63.2455   83.6831   11.0215 C.2     1  UNL1        0.2425
     23 O          64.5933   83.0861   10.7434 O.2     1  UNL1       -0.2733
     24 N          62.3341   83.0421   12.0257 N.am    1  UNL1       -0.3046
     25 H          61.4496   83.4339   12.2082 H       1  UNL1        0.1494
     26 C          62.7703   81.8041   12.7517 C.3     1  UNL1        0.0717
     27 C          63.7858   81.0732   13.5790 C.3     1  UNL1        0.0213
     28 C          62.5104   80.3909   13.1819 C.3     1  UNL1        0.0213
     29 N          58.3994   88.6561   12.7188 N.1     1  UNL1       -0.1950
     30 C          59.7364   88.4850   12.0604 C.1     1  UNL1        0.0881
@<TRIPOS>BOND
     1    29    30    3
     2    30     1    1
     3     1    17    1
     4    17    18    2
     5    17    19   am
     6    19    21    1
     7    21    22    1
     8    22    23    2
     9    22    24   am
    10    24    26    1
    11    26    27    1
    12    27    28    1
    13     1     2    1
    14     2     3   ar
    15     3     4   ar
    16     4     5   ar
    17     5     6   ar
    18     6     7   ar
    19     7    11    1
    20    11    12   ar
    21    12    13   ar
    22    13    14   ar
    23    14    15   ar
    24    15    16   ar
    25     7     8   ar
    26     8     9   ar
    27     9    10   ar
    28    28    26    1
    29    10     2   ar
    30     9     4   ar
    31    16    11   ar
    32    19    20    1
    33    24    25    1
@<TRIPOS>MOLECULE
*****
 30 33 0 0 0
SMALL
GASTEIGER

@<TRIPOS>ATOM
      1 C          63.8080   90.3352   14.8530 C.3     1  UNL1        0.2129
      2 C          63.2393   89.8308   13.5599 C.ar    1  UNL1        0.1110
      3 N          62.3276   90.5899   12.6420 N.ar    1  UNL1       -0.2412
      4 C          62.0073   89.7070   11.4724 C.ar    1  UNL1        0.0875
      5 C          61.1580   89.9226   10.2550 C.ar    1  UNL1        0.0196
      6 C          61.0224   88.8334    9.2327 C.ar    1  UNL1        0.0016
      7 C          61.7363   87.5286    9.4277 C.ar    1  UNL1        0.0006
      8 C          62.5856   87.3130   10.6451 C.ar    1  UNL1        0.0080
      9 C          62.7212   88.4022   11.6674 C.ar    1  UNL1        0.0482
     10 S          63.4826   88.4788   12.9575 S.2     1  UNL1       -0.0693
     11 C          61.6007   86.4394    8.4052 C.ar    1  UNL1        0.0000
     12 C          60.2762   86.1889    7.7474 C.ar    1  UNL1        0.0000
     13 C          60.1406   85.0996    6.7250 C.ar    1  UNL1        0.0000
     14 C          61.3296   84.2610    6.3605 C.ar    1  UNL1        0.0000
     15 C          62.6542   84.5115    7.0184 C.ar    1  UNL1        0.0000
     16 C          62.7897   85.6007    8.0407 C.ar    1  UNL1        0.0000
     17 C          64.7015   91.5400   14.8601 C.2     1  UNL1        0.2430
     18 O          64.9438   92.2865   16.1385 O.2     1  UNL1       -0.2735
     19 N          65.3526   91.9984   13.5890 N.am    1  UNL1       -0.2955
     20 H          65.1936   91.5085   12.7500 H       1  UNL1        0.1499
     21 C          66.2462   93.2033   13.5961 C.3     1  UNL1        0.1757
     22 C          66.4363   94.0034   12.3417 C.2     1  UNL1        0.2425
     23 O          65.9964   95.4367   12.2925 O.2     1  UNL1       -0.2733
     24 N          67.0663   93.3704   11.1366 N.am    1  UNL1       -0.3046
     25 H          67.3550   92.4298   11.1689 H       1  UNL1        0.1494
     26 C          67.2564   94.1706    9.8822 C.3     1  UNL1        0.0717
     27 C          67.8266   95.3658    9.1777 C.3     1  UNL1        0.0213
     28 C          67.0155   94.3613    8.4140 C.3     1  UNL1        0.0213
     29 N          63.1582   88.9344   17.4251 N.1     1  UNL1       -0.1950
     30 C          63.4831   89.6348   16.1390 C.1     1  UNL1        0.0881
@<TRIPOS>BOND
     1    29    30    3
     2    30     1    1
     3     1    17    1
     4    17    18    2
     5    17    19   am
     6    19    21    1
     7    21    22    1
     8    22    23    2
     9    22    24   am
    10    24    26    1
    11    26    27    1
    12    27    28    1
    13     1     2    1
    14     2     3   ar
    15     3     4   ar
    16     4     5   ar
    17     5     6   ar
    18     6     7   ar
    19     7    11    1
    20    11    12   ar
    21    12    13   ar
    22    13    14   ar
    23    14    15   ar
    24    15    16   ar
    25     7     8   ar
    26     8     9   ar
    27     9    10   ar
    28    28    26    1
    29    10     2   ar
    30     9     4   ar
    31    16    11   ar
    32    19    20    1
    33    24    25    1
@<TRIPOS>MOLECULE
*****
 30 33 0 0 0
SMALL
GASTEIGER

@<TRIPOS>ATOM
      1 C          62.1250   87.5078   11.5168 C.3     1  UNL1        0.2129
      2 C          62.9062   88.7790   11.6708 C.ar    1  UNL1        0.1110
      3 N          63.5394   89.2771   12.9361 N.ar    1  UNL1       -0.2412
      4 C          64.2160   90.5813   12.6337 C.ar    1  UNL1        0.0875
      5 C          65.0001   91.5281   13.4931 C.ar    1  UNL1        0.0196
      6 C          65.5691   92.7830   12.9003 C.ar    1  UNL1        0.0016
      7 C          65.3539   93.0911   11.4481 C.ar    1  UNL1        0.0006
      8 C          64.5698   92.1442   10.5888 C.ar    1  UNL1        0.0080
      9 C          64.0008   90.8893   11.1815 C.ar    1  UNL1        0.0482
     10 S          63.1914   89.7755   10.5864 S.2     1  UNL1       -0.0693
     11 C          65.9229   94.3460   10.8554 C.ar    1  UNL1        0.0000
     12 C          65.9869   95.6006   11.6750 C.ar    1  UNL1        0.0000
     13 C          66.5560   96.8556   11.0822 C.ar    1  UNL1        0.0000
     14 C          67.0610   96.8559    9.6698 C.ar    1  UNL1        0.0000
     15 C          66.9970   95.6012    8.8501 C.ar    1  UNL1        0.0000
     16 C          66.4280   94.3463    9.4429 C.ar    1  UNL1        0.0000
     17 C          62.6532   86.2283   12.0944 C.2     1  UNL1        0.2430
     18 O          62.2619   84.9135   11.4874 O.2     1  UNL1       -0.2735
     19 N          63.5728   86.2634   13.2789 N.am    1  UNL1       -0.2955
     20 H          63.8297   87.1263   13.6773 H       1  UNL1        0.1499
     21 C          64.1011   84.9837   13.8565 C.3     1  UNL1        0.1757
     22 C          63.1601   83.8599   14.1752 C.2     1  UNL1        0.2425
     23 O          62.3120   83.9195   15.4110 O.2     1  UNL1       -0.2733
     24 N          63.0671   82.6767   13.2581 N.am    1  UNL1       -0.3046
     25 H          63.6237   82.6376   12.4469 H       1  UNL1        0.1494
     26 C          62.1260   81.5529   13.5767 C.3     1  UNL1        0.0717
     27 C          60.7909   81.0759   14.0664 C.3     1  UNL1        0.0213
     28 C          61.8313   80.0835   13.6391 C.3     1  UNL1        0.0213
     29 N          59.5059   87.5245   10.0538 N.1     1  UNL1       -0.1950
     30 C          60.8155   87.5162   10.7854 C.1     1  UNL1        0.0881
@<TRIPOS>BOND
     1    29    30    3
     2    30     1    1
     3     1    17    1
     4    17    18    2
     5    17    19   am
     6    19    21    1
     7    21    22    1
     8    22    23    2
     9    22    24   am
    10    24    26    1
    11    26    27    1
    12    27    28    1
    13     1     2    1
    14     2     3   ar
    15     3     4   ar
    16     4     5   ar
    17     5     6   ar
    18     6     7   ar
    19     7    11    1
    20    11    12   ar
    21    12    13   ar
    22    13    14   ar
    23    14    15   ar
    24    15    16   ar
    25     7     8   ar
    26     8     9   ar
    27     9    10   ar
    28    28    26    1
    29    10     2   ar
    30     9     4   ar
    31    16    11   ar
    32    19    20    1
    33    24    25    1
@<TRIPOS>MOLECULE
*****
 30 33 0 0 0
SMALL
GASTEIGER

@<TRIPOS>ATOM
      1 C          64.6241   90.7038   15.0479 C.3     1  UNL1        0.2129
      2 C          64.2586   89.2490   15.0545 C.ar    1  UNL1        0.1110
      3 N          63.8442   88.4495   16.2541 N.ar    1  UNL1       -0.2412
      4 C          63.5727   87.0447   15.8036 C.ar    1  UNL1        0.0875
      5 C          63.1329   85.8192   16.5483 C.ar    1  UNL1        0.0196
      6 C          62.9396   84.5250   15.8151 C.ar    1  UNL1        0.0016
      7 C          63.1862   84.4563   14.3371 C.ar    1  UNL1        0.0006
      8 C          63.6261   85.6818   13.5923 C.ar    1  UNL1        0.0080
      9 C          63.8193   86.9760   14.3256 C.ar    1  UNL1        0.0482
     10 S          64.2432   88.3384   13.8627 S.2     1  UNL1       -0.0693
     11 C          62.9929   83.1621   13.6038 C.ar    1  UNL1        0.0000
     12 C          62.3277   82.0047   14.2877 C.ar    1  UNL1        0.0000
     13 C          62.1344   80.7105   13.5544 C.ar    1  UNL1        0.0000
     14 C          62.6064   80.5737   12.1372 C.ar    1  UNL1        0.0000
     15 C          63.2717   81.7312   11.4533 C.ar    1  UNL1        0.0000
     16 C          63.4650   83.0253   12.1866 C.ar    1  UNL1        0.0000
     17 C          65.6698   91.2100   14.0992 C.2     1  UNL1        0.2430
     18 O          67.1240   91.0335   14.4220 O.2     1  UNL1       -0.2735
     19 N          65.2614   91.8928   12.8275 N.am    1  UNL1       -0.2955
     20 H          64.3070   92.0087   12.6156 H       1  UNL1        0.1499
     21 C          66.3072   92.3991   11.8788 C.3     1  UNL1        0.1757
     22 C          66.2592   93.8191   11.3978 C.2     1  UNL1        0.2425
     23 O          66.0594   94.9367   12.3781 O.2     1  UNL1       -0.2733
     24 N          66.4108   94.1214    9.9364 N.am    1  UNL1       -0.3046
     25 H          66.5419   93.3879    9.2930 H       1  UNL1        0.1494
     26 C          66.3628   95.5414    9.4554 C.3     1  UNL1        0.0717
     27 C          67.0003   96.6899    8.7312 C.3     1  UNL1        0.0213
     28 C          65.6420   96.8523    9.3464 C.3     1  UNL1        0.0213
     29 N          63.2636   92.6009   16.9321 N.1     1  UNL1       -0.1950
     30 C          63.9439   91.6523   15.9900 C.1     1  UNL1        0.0881
@<TRIPOS>BOND
     1    29    30    3
     2    30     1    1
     3     1    17    1
     4    17    18    2
     5    17    19   am
     6    19    21    1
     7    21    22    1
     8    22    23    2
     9    22    24   am
    10    24    26    1
    11    26    27    1
    12    27    28    1
    13     1     2    1
    14     2     3   ar
    15     3     4   ar
    16     4     5   ar
    17     5     6   ar
    18     6     7   ar
    19     7    11    1
    20    11    12   ar
    21    12    13   ar
    22    13    14   ar
    23    14    15   ar
    24    15    16   ar
    25     7     8   ar
    26     8     9   ar
    27     9    10   ar
    28    28    26    1
    29    10     2   ar
    30     9     4   ar
    31    16    11   ar
    32    19    20    1
    33    24    25    1
@<TRIPOS>MOLECULE
*****
 30 33 0 0 0
SMALL
GASTEIGER

@<TRIPOS>ATOM
      1 C          60.9636   88.5798   11.2802 C.3     1  UNL1        0.2129
      2 C          62.1277   89.4858   11.5524 C.ar    1  UNL1        0.1110
      3 N          62.6317   90.5700   10.6466 N.ar    1  UNL1       -0.2412
      4 C          63.8077   91.2209   11.3125 C.ar    1  UNL1        0.0875
      5 C          64.7044   92.3465   10.8895 C.ar    1  UNL1        0.0196
      6 C          65.8239   92.7901   11.7838 C.ar    1  UNL1        0.0016
      7 C          66.0468   92.1081   13.1011 C.ar    1  UNL1        0.0006
      8 C          65.1501   90.9825   13.5241 C.ar    1  UNL1        0.0080
      9 C          64.0305   90.5390   12.6298 C.ar    1  UNL1        0.0482
     10 S          62.9922   89.4666   12.7780 S.2     1  UNL1       -0.0693
     11 C          67.1664   92.5517   13.9954 C.ar    1  UNL1        0.0000
     12 C          68.5552   92.0304   13.7733 C.ar    1  UNL1        0.0000
     13 C          69.6748   92.4740   14.6677 C.ar    1  UNL1        0.0000
     14 C          69.4055   93.4390   15.7840 C.ar    1  UNL1        0.0000
     15 C          68.0166   93.9604   16.0061 C.ar    1  UNL1        0.0000
     16 C          66.8971   93.5167   15.1118 C.ar    1  UNL1        0.0000
     17 C          61.1588   87.3288   10.4759 C.2     1  UNL1        0.2430
     18 O          60.1367   86.9270    9.4541 O.2     1  UNL1       -0.2735
     19 N          62.3760   86.4796   10.6934 N.am    1  UNL1       -0.2955
     20 H          63.0468   86.7433   11.3640 H       1  UNL1        0.1499
     21 C          62.5711   85.2286    9.8890 C.3     1  UNL1        0.1757
     22 C          63.0200   83.9660   10.5631 C.2     1  UNL1        0.2425
     23 O          64.0911   83.1221    9.9380 O.2     1  UNL1       -0.2733
     24 N          62.3978   83.5473   11.8621 N.am    1  UNL1       -0.3046
     25 H          61.6948   84.1012   12.2723 H       1  UNL1        0.1494
     26 C          62.8467   82.2847   12.5361 C.3     1  UNL1        0.0717
     27 C          63.9469   81.4259   13.0856 C.3     1  UNL1        0.0213
     28 C          62.5238   80.9566   13.1541 C.3     1  UNL1        0.0213
     29 N          58.2449   89.2698   12.3446 N.1     1  UNL1       -0.1950
     30 C          59.6043   88.9248   11.8124 C.1     1  UNL1        0.0881
@<TRIPOS>BOND
     1    29    30    3
     2    30     1    1
     3     1    17    1
     4    17    18    2
     5    17    19   am
     6    19    21    1
     7    21    22    1
     8    22    23    2
     9    22    24   am
    10    24    26    1
    11    26    27    1
    12    27    28    1
    13     1     2    1
    14     2     3   ar
    15     3     4   ar
    16     4     5   ar
    17     5     6   ar
    18     6     7   ar
    19     7    11    1
    20    11    12   ar
    21    12    13   ar
    22    13    14   ar
    23    14    15   ar
    24    15    16   ar
    25     7     8   ar
    26     8     9   ar
    27     9    10   ar
    28    28    26    1
    29    10     2   ar
    30     9     4   ar
    31    16    11   ar
    32    19    20    1
    33    24    25    1
@<TRIPOS>MOLECULE
*****
 30 33 0 0 0
SMALL
GASTEIGER

@<TRIPOS>ATOM
      1 C          64.3579   90.3457   13.7982 C.3     1  UNL1        0.2129
      2 C          64.1283   88.8892   14.0739 C.ar    1  UNL1        0.1110
      3 N          64.2148   88.2211   15.4141 N.ar    1  UNL1       -0.2412
      4 C          63.9119   86.7641   15.2262 C.ar    1  UNL1        0.0875
      5 C          63.8499   85.6190   16.1931 C.ar    1  UNL1        0.0196
      6 C          63.5142   84.2415   15.7036 C.ar    1  UNL1        0.0016
      7 C          63.2404   84.0090   14.2472 C.ar    1  UNL1        0.0006
      8 C          63.3023   85.1541   13.2803 C.ar    1  UNL1        0.0080
      9 C          63.6381   86.5316   13.7698 C.ar    1  UNL1        0.0482
     10 S          63.7718   87.8450   13.0577 S.2     1  UNL1       -0.0693
     11 C          62.9047   82.6314   13.7578 C.ar    1  UNL1        0.0000
     12 C          63.6138   82.0665   12.5628 C.ar    1  UNL1        0.0000
     13 C          63.2781   80.6889   12.0733 C.ar    1  UNL1        0.0000
     14 C          62.2332   79.8762   12.7789 C.ar    1  UNL1        0.0000
     15 C          61.5240   80.4412   13.9739 C.ar    1  UNL1        0.0000
     16 C          61.8598   81.8188   14.4633 C.ar    1  UNL1        0.0000
     17 C          63.7277   90.9906   12.5995 C.2     1  UNL1        0.2430
     18 O          64.3960   92.1597   11.9386 O.2     1  UNL1       -0.2735
     19 N          62.4293   90.4664   12.0616 N.am    1  UNL1       -0.2955
     20 H          61.9907   89.6991   12.4953 H       1  UNL1        0.1499
     21 C          61.7991   91.1114   10.8628 C.3     1  UNL1        0.1757
     22 C          60.7272   90.3908   10.1001 C.2     1  UNL1        0.2425
     23 O          59.2834   90.7096   10.3530 O.2     1  UNL1       -0.2733
     24 N          61.0990   89.3514    9.0846 N.am    1  UNL1       -0.3046
     25 H          62.0466   89.1421    8.9187 H       1  UNL1        0.1494
     26 C          60.0271   88.6307    8.3219 C.3     1  UNL1        0.0717
     27 C          59.1812   87.4105    8.1090 C.3     1  UNL1        0.0213
     28 C          59.0165   88.6028    7.2139 C.3     1  UNL1        0.0213
     29 N          66.0775   91.9688   15.6444 N.1     1  UNL1       -0.1950
     30 C          65.2176   91.1572   14.7213 C.1     1  UNL1        0.0881
@<TRIPOS>BOND
     1    29    30    3
     2    30     1    1
     3     1    17    1
     4    17    18    2
     5    17    19   am
     6    19    21    1
     7    21    22    1
     8    22    23    2
     9    22    24   am
    10    24    26    1
    11    26    27    1
    12    27    28    1
    13     1     2    1
    14     2     3   ar
    15     3     4   ar
    16     4     5   ar
    17     5     6   ar
    18     6     7   ar
    19     7    11    1
    20    11    12   ar
    21    12    13   ar
    22    13    14   ar
    23    14    15   ar
    24    15    16   ar
    25     7     8   ar
    26     8     9   ar
    27     9    10   ar
    28    28    26    1
    29    10     2   ar
    30     9     4   ar
    31    16    11   ar
    32    19    20    1
    33    24    25    1
@<TRIPOS>MOLECULE
*****
 30 33 0 0 0
SMALL
GASTEIGER

@<TRIPOS>ATOM
      1 C          63.0332   86.6307   12.3558 C.3     1  UNL1        0.2129
      2 C          62.1854   86.9849   11.1702 C.ar    1  UNL1        0.1110
      3 N          61.3070   86.0429   10.4014 N.ar    1  UNL1       -0.2412
      4 C          60.6458   86.8192    9.3013 C.ar    1  UNL1        0.0875
      5 C          59.6767   86.4150    8.2301 C.ar    1  UNL1        0.0196
      6 C          59.1773   87.4327    7.2478 C.ar    1  UNL1        0.0016
      7 C          59.6471   88.8544    7.3366 C.ar    1  UNL1        0.0006
      8 C          60.6162   89.2586    8.4078 C.ar    1  UNL1        0.0080
      9 C          61.1156   88.2409    9.3901 C.ar    1  UNL1        0.0482
     10 S          62.0671   88.3434   10.5452 S.2     1  UNL1       -0.0693
     11 C          59.1477   89.8721    6.3542 C.ar    1  UNL1        0.0000
     12 C          57.6731   90.0671    6.1606 C.ar    1  UNL1        0.0000
     13 C          57.1737   91.0847    5.1782 C.ar    1  UNL1        0.0000
     14 C          58.1489   91.9074    4.3895 C.ar    1  UNL1        0.0000
     15 C          59.6236   91.7124    4.5831 C.ar    1  UNL1        0.0000
     16 C          60.1229   90.6948    5.5655 C.ar    1  UNL1        0.0000
     17 C          63.4459   85.2068   12.5842 C.2     1  UNL1        0.2430
     18 O          63.5964   84.6845   13.9823 O.2     1  UNL1       -0.2735
     19 N          63.7082   84.3051   11.4144 N.am    1  UNL1       -0.2955
     20 H          63.6094   84.6479   10.4968 H       1  UNL1        0.1499
     21 C          64.1209   82.8812   11.6429 C.3     1  UNL1        0.1757
     22 C          63.0996   81.8603   12.0490 C.2     1  UNL1        0.2425
     23 O          62.7960   80.7024   11.1449 O.2     1  UNL1       -0.2733
     24 N          62.3821   81.9972   13.3590 N.am    1  UNL1       -0.3046
     25 H          62.5814   82.7572   13.9523 H       1  UNL1        0.1494
     26 C          61.3608   80.9764   13.7651 C.3     1  UNL1        0.0717
     27 C          60.9997   79.5559   14.0841 C.3     1  UNL1        0.0213
     28 C          59.9533   80.6286   14.1494 C.3     1  UNL1        0.0213
     29 N          63.9037   88.7701   14.2704 N.1     1  UNL1       -0.1950
     30 C          63.4684   87.7004   13.3131 C.1     1  UNL1        0.0881
@<TRIPOS>BOND
     1    29    30    3
     2    30     1    1
     3     1    17    1
     4    17    18    2
     5    17    19   am
     6    19    21    1
     7    21    22    1
     8    22    23    2
     9    22    24   am
    10    24    26    1
    11    26    27    1
    12    27    28    1
    13     1     2    1
    14     2     3   ar
    15     3     4   ar
    16     4     5   ar
    17     5     6   ar
    18     6     7   ar
    19     7    11    1
    20    11    12   ar
    21    12    13   ar
    22    13    14   ar
    23    14    15   ar
    24    15    16   ar
    25     7     8   ar
    26     8     9   ar
    27     9    10   ar
    28    28    26    1
    29    10     2   ar
    30     9     4   ar
    31    16    11   ar
    32    19    20    1
    33    24    25    1
