@<TRIPOS>MOLECULE
*****
 17 19 0 0 0
SMALL
GASTEIGER

@<TRIPOS>ATOM
      1 C          62.5569   90.1617   11.4276 C.3     1  UNL1        0.0896
      2 N          61.7673   89.3007   10.4869 N.3     1  UNL1       -0.2712
      3 C          60.6118   89.7479    9.6414 C.3     1  UNL1        0.0725
      4 C          60.1250   88.5648    8.8583 C.3     1  UNL1        0.0210
      5 C          59.1100   88.1101    7.8519 C.3     1  UNL1        0.0018
      6 C          59.3373   86.6505    7.5913 C.3     1  UNL1        0.0004
      7 C          60.4928   86.2031    8.4368 C.3     1  UNL1        0.0054
      8 C          60.9796   87.3863    9.2198 C.3     1  UNL1        0.0349
      9 C          61.9946   87.8410   10.2263 C.3     1  UNL1        0.0762
     10 C          61.8342   86.2077    9.5813 C.ar    1  UNL1       -0.0206
     11 C          62.7220   85.5800    8.5480 C.ar    1  UNL1       -0.0033
     12 C          63.5767   84.4014    8.9096 C.ar    1  UNL1        0.0119
     13 C          63.5434   83.8507   10.3044 C.ar    1  UNL1        0.0682
     14 CL         64.3980   82.6721   10.6659 Cl      1  UNL1       -0.0814
     15 C          62.6556   84.4784   11.3377 C.ar    1  UNL1        0.0679
     16 CL         62.6224   83.9276   12.7325 Cl      1  UNL1       -0.0814
     17 C          61.8010   85.6570   10.9761 C.ar    1  UNL1        0.0080
@<TRIPOS>BOND
     1     1     2    1
     2     2     3    1
     3     4     3    1
     4     4     5    1
     5     5     6    1
     6     6     7    1
     7     7     8    1
     8     8    10    1
     9    10    11   ar
    10    11    12   ar
    11    12    13   ar
    12    13    14    1
    13    13    15   ar
    14    15    16    1
    15    15    17   ar
    16     8     9    1
    17     9     2    1
    18     8     4    1
    19    17    10   ar
@<TRIPOS>MOLECULE
*****
 17 19 0 0 0
SMALL
GASTEIGER

@<TRIPOS>ATOM
      1 C          64.2663   86.6833   15.0328 C.3     1  UNL1        0.0896
      2 N          63.6901   85.3704   14.5923 N.3     1  UNL1       -0.2712
      3 C          63.2973   84.2344   15.4897 C.3     1  UNL1        0.0725
      4 C          62.7698   83.1248   14.6291 C.3     1  UNL1        0.0210
      5 C          62.2011   81.7370   14.6518 C.3     1  UNL1        0.0018
      6 C          61.9164   81.3296   13.2366 C.3     1  UNL1        0.0004
      7 C          62.3091   82.4655   12.3392 C.3     1  UNL1        0.0054
      8 C          62.8366   83.5751   13.1998 C.3     1  UNL1        0.0349
      9 C          63.4053   84.9629   13.1770 C.3     1  UNL1        0.0762
     10 C          62.9034   84.0253   11.7705 C.ar    1  UNL1       -0.0206
     11 C          63.7964   83.3108   10.8000 C.ar    1  UNL1       -0.0033
     12 C          63.8631   83.7612    9.3707 C.ar    1  UNL1        0.0119
     13 C          63.0368   84.9259    8.9121 C.ar    1  UNL1        0.0682
     14 CL         63.1036   85.3762    7.4828 Cl      1  UNL1       -0.0814
     15 C          62.1437   85.6404    9.8825 C.ar    1  UNL1        0.0679
     16 CL         61.3174   86.8052    9.4238 Cl      1  UNL1       -0.0814
     17 C          62.0770   85.1901   11.3118 C.ar    1  UNL1        0.0080
@<TRIPOS>BOND
     1     1     2    1
     2     2     3    1
     3     4     3    1
     4     4     5    1
     5     5     6    1
     6     6     7    1
     7     7     8    1
     8     8    10    1
     9    10    11   ar
    10    11    12   ar
    11    12    13   ar
    12    13    14    1
    13    13    15   ar
    14    15    16    1
    15    15    17   ar
    16     8     9    1
    17     9     2    1
    18     8     4    1
    19    17    10   ar
@<TRIPOS>MOLECULE
*****
 17 19 0 0 0
SMALL
GASTEIGER

@<TRIPOS>ATOM
      1 C          63.1071   90.1810   12.7082 C.3     1  UNL1        0.0896
      2 N          64.1951   90.9743   13.3690 N.3     1  UNL1       -0.2712
      3 C          64.5250   90.9703   14.8323 C.3     1  UNL1        0.0725
      4 C          65.6781   91.9044   15.0501 C.3     1  UNL1        0.0210
      5 C          66.5946   92.4793   16.0892 C.3     1  UNL1        0.0018
      6 C          67.5440   93.4160   15.4027 C.3     1  UNL1        0.0004
      7 C          67.2142   93.4201   13.9394 C.3     1  UNL1        0.0054
      8 C          66.0610   92.4859   13.7215 C.3     1  UNL1        0.0349
      9 C          65.1445   91.9111   12.6824 C.3     1  UNL1        0.0762
     10 C          66.4439   93.0673   12.3928 C.ar    1  UNL1       -0.0206
     11 C          66.0655   94.4789   12.0548 C.ar    1  UNL1       -0.0033
     12 C          66.4484   95.0603   10.7260 C.ar    1  UNL1        0.0119
     13 C          67.2098   94.2301    9.7355 C.ar    1  UNL1        0.0682
     14 CL         67.5926   94.8115    8.4069 Cl      1  UNL1       -0.0814
     15 C          67.5882   92.8185   10.0736 C.ar    1  UNL1        0.0679
     16 CL         68.3495   91.9884    9.0830 Cl      1  UNL1       -0.0814
     17 C          67.2052   92.2372   11.4023 C.ar    1  UNL1        0.0080
@<TRIPOS>BOND
     1     1     2    1
     2     2     3    1
     3     4     3    1
     4     4     5    1
     5     5     6    1
     6     6     7    1
     7     7     8    1
     8     8    10    1
     9    10    11   ar
    10    11    12   ar
    11    12    13   ar
    12    13    14    1
    13    13    15   ar
    14    15    16    1
    15    15    17   ar
    16     8     9    1
    17     9     2    1
    18     8     4    1
    19    17    10   ar
@<TRIPOS>MOLECULE
*****
 17 19 0 0 0
SMALL
GASTEIGER

@<TRIPOS>ATOM
      1 C          61.3375   81.1008   14.1537 C.3     1  UNL1        0.0896
      2 N          62.0653   82.4093   14.2430 N.3     1  UNL1       -0.2712
      3 C          62.5351   83.0727   15.5036 C.3     1  UNL1        0.0725
      4 C          63.2113   84.3576   15.1270 C.3     1  UNL1        0.0210
      5 C          63.9195   85.5617   15.6734 C.3     1  UNL1        0.0018
      6 C          64.3053   86.4366   14.5177 C.3     1  UNL1        0.0004
      7 C          63.8355   85.7733   13.2570 C.3     1  UNL1        0.0054
      8 C          63.1593   84.4884   13.6336 C.3     1  UNL1        0.0349
      9 C          62.4511   83.2843   13.0872 C.3     1  UNL1        0.0762
     10 C          63.1073   84.6191   12.1402 C.ar    1  UNL1       -0.0206
     11 C          63.8380   83.6352   11.2753 C.ar    1  UNL1       -0.0033
     12 C          63.7860   83.7660    9.7819 C.ar    1  UNL1        0.0119
     13 C          63.0033   84.8807    9.1535 C.ar    1  UNL1        0.0682
     14 CL         62.9514   85.0114    7.6601 Cl      1  UNL1       -0.0814
     15 C          62.2727   85.8646   10.0184 C.ar    1  UNL1        0.0679
     16 CL         61.4901   86.9792    9.3899 Cl      1  UNL1       -0.0814
     17 C          62.3247   85.7338   11.5118 C.ar    1  UNL1        0.0080
@<TRIPOS>BOND
     1     1     2    1
     2     2     3    1
     3     4     3    1
     4     4     5    1
     5     5     6    1
     6     6     7    1
     7     7     8    1
     8     8    10    1
     9    10    11   ar
    10    11    12   ar
    11    12    13   ar
    12    13    14    1
    13    13    15   ar
    14    15    16    1
    15    15    17   ar
    16     8     9    1
    17     9     2    1
    18     8     4    1
    19    17    10   ar
@<TRIPOS>MOLECULE
*****
 17 19 0 0 0
SMALL
GASTEIGER

@<TRIPOS>ATOM
      1 C          58.9651   86.9614    7.4344 C.3     1  UNL1        0.0896
      2 N          59.8936   87.5043    8.4798 N.3     1  UNL1       -0.2712
      3 C          59.9535   88.9265    8.9532 C.3     1  UNL1        0.0725
      4 C          61.0222   89.0216   10.0014 C.3     1  UNL1        0.0210
      5 C          61.7197   89.9593   10.9417 C.3     1  UNL1        0.0018
      6 C          62.7514   89.1755   11.6974 C.3     1  UNL1        0.0004
      7 C          62.6917   87.7533   11.2241 C.3     1  UNL1        0.0054
      8 C          61.6229   87.6582   10.1759 C.3     1  UNL1        0.0349
      9 C          60.9255   86.7205    9.2355 C.3     1  UNL1        0.0762
     10 C          62.2236   86.2949   10.3504 C.ar    1  UNL1       -0.0206
     11 C          62.8566   85.5990    9.1820 C.ar    1  UNL1       -0.0033
     12 C          63.4573   84.2356    9.3566 C.ar    1  UNL1        0.0119
     13 C          63.4250   83.5683   10.6995 C.ar    1  UNL1        0.0682
     14 CL         64.0257   82.2049   10.8740 Cl      1  UNL1       -0.0814
     15 C          62.7921   84.2641   11.8679 C.ar    1  UNL1        0.0679
     16 CL         62.7599   83.5966   13.2108 Cl      1  UNL1       -0.0814
     17 C          62.1914   85.6275   11.6933 C.ar    1  UNL1        0.0080
@<TRIPOS>BOND
     1     1     2    1
     2     2     3    1
     3     4     3    1
     4     4     5    1
     5     5     6    1
     6     6     7    1
     7     7     8    1
     8     8    10    1
     9    10    11   ar
    10    11    12   ar
    11    12    13   ar
    12    13    14    1
    13    13    15   ar
    14    15    16    1
    15    15    17   ar
    16     8     9    1
    17     9     2    1
    18     8     4    1
    19    17    10   ar
@<TRIPOS>MOLECULE
*****
 17 19 0 0 0
SMALL
GASTEIGER

@<TRIPOS>ATOM
      1 C          63.2768   89.5054   16.0245 C.3     1  UNL1        0.0896
      2 N          63.6687   90.1783   14.7426 N.3     1  UNL1       -0.2712
      3 C          64.7182   91.2390   14.5886 C.3     1  UNL1        0.0725
      4 C          64.7782   91.6250   13.1403 C.3     1  UNL1        0.0210
      5 C          65.4638   92.5191   12.1501 C.3     1  UNL1        0.0018
      6 C          64.8751   92.2496   10.7971 C.3     1  UNL1        0.0004
      7 C          63.8256   91.1890   10.9510 C.3     1  UNL1        0.0054
      8 C          63.7657   90.8030   12.3993 C.3     1  UNL1        0.0349
      9 C          63.0800   89.9089   13.3894 C.3     1  UNL1        0.0762
     10 C          62.7532   89.9809   11.6582 C.ar    1  UNL1       -0.0206
     11 C          61.6564   90.6563   10.8895 C.ar    1  UNL1       -0.0033
     12 C          60.6439   89.8341   10.1484 C.ar    1  UNL1        0.0119
     13 C          60.7284   88.3368   10.1761 C.ar    1  UNL1        0.0682
     14 CL         59.7159   87.5148    9.4350 Cl      1  UNL1       -0.0814
     15 C          61.8252   87.6615   10.9448 C.ar    1  UNL1        0.0679
     16 CL         61.9095   86.1641   10.9724 Cl      1  UNL1       -0.0814
     17 C          62.8376   88.4836   11.6859 C.ar    1  UNL1        0.0080
@<TRIPOS>BOND
     1     1     2    1
     2     2     3    1
     3     4     3    1
     4     4     5    1
     5     5     6    1
     6     6     7    1
     7     7     8    1
     8     8    10    1
     9    10    11   ar
    10    11    12   ar
    11    12    13   ar
    12    13    14    1
    13    13    15   ar
    14    15    16    1
    15    15    17   ar
    16     8     9    1
    17     9     2    1
    18     8     4    1
    19    17    10   ar
@<TRIPOS>MOLECULE
*****
 17 19 0 0 0
SMALL
GASTEIGER

@<TRIPOS>ATOM
      1 C          64.0486   88.7920   13.7915 C.3     1  UNL1        0.0896
      2 N          63.2997   88.1766   12.6469 N.3     1  UNL1       -0.2712
      3 C          62.5797   88.9215   11.5621 C.3     1  UNL1        0.0725
      4 C          61.9742   87.9134   10.6308 C.3     1  UNL1        0.0210
      5 C          61.1550   87.7508    9.3848 C.3     1  UNL1        0.0018
      6 C          60.9945   86.2824    9.1240 C.3     1  UNL1        0.0004
      7 C          61.7144   85.5375   10.2088 C.3     1  UNL1        0.0054
      8 C          62.3199   86.5455   11.1401 C.3     1  UNL1        0.0349
      9 C          63.1391   86.7081   12.3861 C.3     1  UNL1        0.0762
     10 C          62.6657   85.1777   11.6493 C.ar    1  UNL1       -0.0206
     11 C          63.2672   84.1625   10.7233 C.ar    1  UNL1       -0.0033
     12 C          63.6130   82.7946   11.2326 C.ar    1  UNL1        0.0119
     13 C          63.3572   82.4420   12.6679 C.ar    1  UNL1        0.0682
     14 CL         63.7030   81.0741   13.1772 Cl      1  UNL1       -0.0814
     15 C          62.7557   83.4571   13.5940 C.ar    1  UNL1        0.0679
     16 CL         62.5000   83.1044   15.0293 Cl      1  UNL1       -0.0814
     17 C          62.4100   84.8250   13.0847 C.ar    1  UNL1        0.0080
@<TRIPOS>BOND
     1     1     2    1
     2     2     3    1
     3     4     3    1
     4     4     5    1
     5     5     6    1
     6     6     7    1
     7     7     8    1
     8     8    10    1
     9    10    11   ar
    10    11    12   ar
    11    12    13   ar
    12    13    14    1
    13    13    15   ar
    14    15    16    1
    15    15    17   ar
    16     8     9    1
    17     9     2    1
    18     8     4    1
    19    17    10   ar
@<TRIPOS>MOLECULE
*****
 17 19 0 0 0
SMALL
GASTEIGER

@<TRIPOS>ATOM
      1 C          61.2475   87.1696    9.9503 C.3     1  UNL1        0.0896
      2 N          62.0894   87.0147   11.1820 N.3     1  UNL1       -0.2712
      3 C          62.7649   88.1233   11.9335 C.3     1  UNL1        0.0725
      4 C          63.4967   87.5177   13.0944 C.3     1  UNL1        0.0210
      5 C          64.3664   87.8287   14.2763 C.3     1  UNL1        0.0018
      6 C          64.6807   86.5379   14.9728 C.3     1  UNL1        0.0004
      7 C          64.0052   85.4292   14.2214 C.3     1  UNL1        0.0054
      8 C          63.2735   86.0348   13.0605 C.3     1  UNL1        0.0349
      9 C          62.4037   85.7238   11.8786 C.3     1  UNL1        0.0762
     10 C          63.0502   84.5519   13.0265 C.ar    1  UNL1       -0.0206
     11 C          62.5118   83.8466   14.2359 C.ar    1  UNL1       -0.0033
     12 C          62.2886   82.3636   14.2018 C.ar    1  UNL1        0.0119
     13 C          62.6039   81.5861   12.9585 C.ar    1  UNL1        0.0682
     14 CL         62.3806   80.1032   12.9245 Cl      1  UNL1       -0.0814
     15 C          63.1423   82.2914   11.7491 C.ar    1  UNL1        0.0679
     16 CL         63.4576   81.5138   10.5058 Cl      1  UNL1       -0.0814
     17 C          63.3655   83.7743   11.7831 C.ar    1  UNL1        0.0080
@<TRIPOS>BOND
     1     1     2    1
     2     2     3    1
     3     4     3    1
     4     4     5    1
     5     5     6    1
     6     6     7    1
     7     7     8    1
     8     8    10    1
     9    10    11   ar
    10    11    12   ar
    11    12    13   ar
    12    13    14    1
    13    13    15   ar
    14    15    16    1
    15    15    17   ar
    16     8     9    1
    17     9     2    1
    18     8     4    1
    19    17    10   ar
@<TRIPOS>MOLECULE
*****
 17 19 0 0 0
SMALL
GASTEIGER

@<TRIPOS>ATOM
      1 C          62.5826   84.5489   15.2684 C.3     1  UNL1        0.0896
      2 N          62.8852   84.3331   13.8152 N.3     1  UNL1       -0.2712
      3 C          63.6204   83.1629   13.2320 C.3     1  UNL1        0.0725
      4 C          63.6954   83.3562   11.7464 C.3     1  UNL1        0.0210
      5 C          64.1961   82.7523   10.4679 C.3     1  UNL1        0.0018
      6 C          63.8168   83.6689    9.3427 C.3     1  UNL1        0.0004
      7 C          63.0817   84.8392    9.9258 C.3     1  UNL1        0.0054
      8 C          63.0067   84.6459   11.4114 C.3     1  UNL1        0.0349
      9 C          62.5060   85.2497   12.6900 C.3     1  UNL1        0.0762
     10 C          62.3179   85.9357   11.0765 C.ar    1  UNL1       -0.0206
     11 C          62.7798   87.2175   11.7039 C.ar    1  UNL1       -0.0033
     12 C          62.0910   88.5072   11.3688 C.ar    1  UNL1        0.0119
     13 C          60.9404   88.5151   10.4065 C.ar    1  UNL1        0.0682
     14 CL         60.2517   89.8048   10.0715 Cl      1  UNL1       -0.0814
     15 C          60.4786   87.2332    9.7791 C.ar    1  UNL1        0.0679
     16 CL         59.3281   87.2412    8.8167 Cl      1  UNL1       -0.0814
     17 C          61.1674   85.9435   10.1141 C.ar    1  UNL1        0.0080
@<TRIPOS>BOND
     1     1     2    1
     2     2     3    1
     3     4     3    1
     4     4     5    1
     5     5     6    1
     6     6     7    1
     7     7     8    1
     8     8    10    1
     9    10    11   ar
    10    11    12   ar
    11    12    13   ar
    12    13    14    1
    13    13    15   ar
    14    15    16    1
    15    15    17   ar
    16     8     9    1
    17     9     2    1
    18     8     4    1
    19    17    10   ar
