@<TRIPOS>MOLECULE
*****
 23 27 0 0 0
SMALL
GASTEIGER

@<TRIPOS>ATOM
      1 F          62.7627   79.9207   11.9405 F       1  UNL1       -0.2026
      2 C          62.7642   81.3623   12.3549 C.ar    1  UNL1        0.1577
      3 C          62.8447   81.7248   13.8083 C.ar    1  UNL1        0.0343
      4 C          62.8462   83.1664   14.2227 C.ar    1  UNL1        0.0397
      5 C          62.7672   84.2455   13.1838 C.ar    1  UNL1        0.1476
      6 N          62.7495   85.7416   13.2900 N.ar    1  UNL1       -0.2268
      7 C          62.6581   86.3038   11.9024 C.ar    1  UNL1        0.0963
      8 C          62.6193   85.1551   10.9385 C.ar    1  UNL1        0.0601
      9 N          62.6867   83.8830   11.7305 N.ar    1  UNL1       -0.2906
     10 C          62.6852   82.4414   11.3161 C.ar    1  UNL1        0.1110
     11 C          62.6134   87.7592   11.5418 C.ar    1  UNL1        0.0380
     12 C          61.9042   88.2019   10.2965 C.ar    1  UNL1        0.1004
     13 N          61.8594   89.6572    9.9359 N.ar    1  UNL1       -0.2423
     14 C          62.5239   90.6698   10.8208 C.ar    1  UNL1        0.0988
     15 C          63.2332   90.2272   12.0662 C.ar    1  UNL1        0.0192
     16 C          63.8977   91.2398   12.9510 C.ar    1  UNL1        0.0015
     17 C          64.6069   90.7971   14.1964 C.ar    1  UNL1        0.0000
     18 C          64.6517   89.3417   14.5569 C.ar    1  UNL1        0.0000
     19 C          63.9872   88.3291   13.6721 C.ar    1  UNL1        0.0001
     20 C          63.2779   88.7718   12.4267 C.ar    1  UNL1        0.0045
     21 C          62.5289   85.2600    9.4449 C.3     1  UNL1        0.0402
     22 C          63.1553   85.1008    8.0912 C.3     1  UNL1        0.0063
     23 C          61.7463   85.6010    8.2116 C.3     1  UNL1        0.0063
@<TRIPOS>BOND
     1     1     2    1
     2     2     3   ar
     3     3     4   ar
     4     4     5   ar
     5     5     6   ar
     6     6     7   ar
     7     7    11    1
     8    11    12   ar
     9    12    13   ar
    10    13    14   ar
    11    14    15   ar
    12    15    16   ar
    13    16    17   ar
    14    17    18   ar
    15    18    19   ar
    16    19    20   ar
    17     7     8   ar
    18     8    21    1
    19    21    22    1
    20    22    23    1
    21     8     9   ar
    22     9    10   ar
    23    10     2   ar
    24     9     5   ar
    25    20    11   ar
    26    23    21    1
    27    20    15   ar
@<TRIPOS>MOLECULE
*****
 23 27 0 0 0
SMALL
GASTEIGER

@<TRIPOS>ATOM
      1 F          59.5796   85.6053    7.5552 F       1  UNL1       -0.2026
      2 C          60.0530   86.8334    8.2749 C.ar    1  UNL1        0.1577
      3 C          59.6416   88.1920    7.7903 C.ar    1  UNL1        0.0343
      4 C          60.1149   89.4200    8.5099 C.ar    1  UNL1        0.0397
      5 C          60.9997   89.2894    9.7141 C.ar    1  UNL1        0.1476
      6 N          61.6183   90.3118   10.6207 N.ar    1  UNL1       -0.2268
      7 C          62.4121   89.5851   11.6656 C.ar    1  UNL1        0.0963
      8 C          62.2840   88.1135   11.4048 C.ar    1  UNL1        0.0601
      9 N          61.4111   87.9308   10.1987 N.ar    1  UNL1       -0.2906
     10 C          60.9378   86.7027    9.4791 C.ar    1  UNL1        0.1110
     11 C          63.1962   90.2187   12.7763 C.ar    1  UNL1        0.0380
     12 C          62.9419   89.8158   14.1986 C.ar    1  UNL1        0.1004
     13 N          63.7260   90.4494   15.3093 N.ar    1  UNL1       -0.2423
     14 C          64.7645   91.4859   14.9978 C.ar    1  UNL1        0.0988
     15 C          65.0189   91.8889   13.5754 C.ar    1  UNL1        0.0192
     16 C          66.0573   92.9255   13.2639 C.ar    1  UNL1        0.0015
     17 C          66.3116   93.3284   11.8416 C.ar    1  UNL1        0.0000
     18 C          65.5275   92.6948   10.7309 C.ar    1  UNL1        0.0000
     19 C          64.4890   91.6583   11.0424 C.ar    1  UNL1        0.0001
     20 C          64.2347   91.2553   12.4647 C.ar    1  UNL1        0.0045
     21 C          62.9176   87.0172   12.2088 C.3     1  UNL1        0.0402
     22 C          63.1522   85.5562   12.4553 C.3     1  UNL1        0.0063
     23 C          63.7804   86.5790   13.3549 C.3     1  UNL1        0.0063
@<TRIPOS>BOND
     1     1     2    1
     2     2     3   ar
     3     3     4   ar
     4     4     5   ar
     5     5     6   ar
     6     6     7   ar
     7     7    11    1
     8    11    12   ar
     9    12    13   ar
    10    13    14   ar
    11    14    15   ar
    12    15    16   ar
    13    16    17   ar
    14    17    18   ar
    15    18    19   ar
    16    19    20   ar
    17     7     8   ar
    18     8    21    1
    19    21    22    1
    20    22    23    1
    21     8     9   ar
    22     9    10   ar
    23    10     2   ar
    24     9     5   ar
    25    20    11   ar
    26    23    21    1
    27    20    15   ar
@<TRIPOS>MOLECULE
*****
 23 27 0 0 0
SMALL
GASTEIGER

@<TRIPOS>ATOM
      1 F          62.7762   79.4223   12.0863 F       1  UNL1       -0.2026
      2 C          62.6653   80.8480   12.5391 C.ar    1  UNL1        0.1577
      3 C          62.4176   81.1584   13.9856 C.ar    1  UNL1        0.0343
      4 C          62.3067   82.5841   14.4384 C.ar    1  UNL1        0.0397
      5 C          62.4434   83.6994   13.4448 C.ar    1  UNL1        0.1476
      6 N          62.3811   85.1905   13.5948 N.ar    1  UNL1       -0.2268
      7 C          62.5902   85.8018   12.2410 C.ar    1  UNL1        0.0963
      8 C          62.7818   84.6884   11.2544 C.ar    1  UNL1        0.0601
      9 N          62.6911   83.3890   11.9983 N.ar    1  UNL1       -0.2906
     10 C          62.8021   81.9633   11.5454 C.ar    1  UNL1        0.1110
     11 C          62.6051   87.2689   11.9288 C.ar    1  UNL1        0.0380
     12 C          63.5289   88.1851   12.6751 C.ar    1  UNL1        0.1004
     13 N          63.5438   89.6522   12.3628 N.ar    1  UNL1       -0.2423
     14 C          62.6349   90.2030   11.3043 C.ar    1  UNL1        0.0988
     15 C          61.7111   89.2867   10.5580 C.ar    1  UNL1        0.0192
     16 C          60.8022   89.8375    9.4995 C.ar    1  UNL1        0.0015
     17 C          59.8784   88.9212    8.7532 C.ar    1  UNL1        0.0000
     18 C          59.8635   87.4541    9.0654 C.ar    1  UNL1        0.0000
     19 C          60.7724   86.9034   10.1239 C.ar    1  UNL1        0.0001
     20 C          61.6962   87.8196   10.8702 C.ar    1  UNL1        0.0045
     21 C          63.0220   84.8465    9.7822 C.3     1  UNL1        0.0402
     22 C          63.2278   84.2377    8.4267 C.3     1  UNL1        0.0063
     23 C          63.2322   85.7290    8.5877 C.3     1  UNL1        0.0063
@<TRIPOS>BOND
     1     1     2    1
     2     2     3   ar
     3     3     4   ar
     4     4     5   ar
     5     5     6   ar
     6     6     7   ar
     7     7    11    1
     8    11    12   ar
     9    12    13   ar
    10    13    14   ar
    11    14    15   ar
    12    15    16   ar
    13    16    17   ar
    14    17    18   ar
    15    18    19   ar
    16    19    20   ar
    17     7     8   ar
    18     8    21    1
    19    21    22    1
    20    22    23    1
    21     8     9   ar
    22     9    10   ar
    23    10     2   ar
    24     9     5   ar
    25    20    11   ar
    26    23    21    1
    27    20    15   ar
@<TRIPOS>MOLECULE
*****
 23 27 0 0 0
SMALL
GASTEIGER

@<TRIPOS>ATOM
      1 F          64.1414   92.1712   11.9933 F       1  UNL1       -0.2026
      2 C          64.1608   90.8462   12.6963 C.ar    1  UNL1        0.1577
      3 C          64.8492   90.7107   14.0221 C.ar    1  UNL1        0.0343
      4 C          64.8686   89.3858   14.7251 C.ar    1  UNL1        0.0397
      5 C          64.1996   88.1964   14.1023 C.ar    1  UNL1        0.1476
      6 N          64.0557   86.7740   14.5560 N.ar    1  UNL1       -0.2268
      7 C          63.2784   86.0304   13.5106 C.ar    1  UNL1        0.0963
      8 C          62.9419   86.9933   12.4108 C.ar    1  UNL1        0.0601
      9 N          63.5113   88.3320   12.7764 N.ar    1  UNL1       -0.2906
     10 C          63.4919   89.6569   12.0735 C.ar    1  UNL1        0.1110
     11 C          62.9033   84.5787   13.5569 C.ar    1  UNL1        0.0380
     12 C          62.1857   84.0273   14.7531 C.ar    1  UNL1        0.1004
     13 N          61.8107   82.5757   14.7994 N.ar    1  UNL1       -0.2423
     14 C          62.1533   81.6755   13.6495 C.ar    1  UNL1        0.0988
     15 C          62.8709   82.2269   12.4532 C.ar    1  UNL1        0.0192
     16 C          63.2135   81.3268   11.3033 C.ar    1  UNL1        0.0015
     17 C          63.9311   81.8782   10.1071 C.ar    1  UNL1        0.0000
     18 C          64.3061   83.3298   10.0608 C.ar    1  UNL1        0.0000
     19 C          63.9635   84.2300   11.2107 C.ar    1  UNL1        0.0001
     20 C          63.2459   83.6786   12.4069 C.ar    1  UNL1        0.0045
     21 C          62.1714   86.6737   11.1642 C.3     1  UNL1        0.0402
     22 C          61.9792   86.8163    9.6833 C.3     1  UNL1        0.0063
     23 C          61.0290   85.9775   10.4857 C.3     1  UNL1        0.0063
@<TRIPOS>BOND
     1     1     2    1
     2     2     3   ar
     3     3     4   ar
     4     4     5   ar
     5     5     6   ar
     6     6     7   ar
     7     7    11    1
     8    11    12   ar
     9    12    13   ar
    10    13    14   ar
    11    14    15   ar
    12    15    16   ar
    13    16    17   ar
    14    17    18   ar
    15    18    19   ar
    16    19    20   ar
    17     7     8   ar
    18     8    21    1
    19    21    22    1
    20    22    23    1
    21     8     9   ar
    22     9    10   ar
    23    10     2   ar
    24     9     5   ar
    25    20    11   ar
    26    23    21    1
    27    20    15   ar
@<TRIPOS>MOLECULE
*****
 23 27 0 0 0
SMALL
GASTEIGER

@<TRIPOS>ATOM
      1 F          62.7604   79.1782   14.1811 F       1  UNL1       -0.2026
      2 C          62.7953   80.4457   13.3797 C.ar    1  UNL1        0.1577
      3 C          62.7809   80.3860   11.8809 C.ar    1  UNL1        0.0343
      4 C          62.8158   81.6534   11.0795 C.ar    1  UNL1        0.0397
      5 C          62.8651   82.9805   11.7767 C.ar    1  UNL1        0.1476
      6 N          62.9070   84.3867   11.2564 N.ar    1  UNL1       -0.2268
      7 C          62.9472   85.3156   12.4335 C.ar    1  UNL1        0.0963
      8 C          62.9303   84.4834   13.6814 C.ar    1  UNL1        0.0601
      9 N          62.8796   83.0402   13.2755 N.ar    1  UNL1       -0.2906
     10 C          62.8447   81.7728   14.0769 C.ar    1  UNL1        0.1110
     11 C          62.9959   86.8136   12.3734 C.ar    1  UNL1        0.0380
     12 C          63.7873   87.5798   13.3915 C.ar    1  UNL1        0.1004
     13 N          63.8360   89.0778   13.3313 N.ar    1  UNL1       -0.2423
     14 C          63.0932   89.8096   12.2531 C.ar    1  UNL1        0.0988
     15 C          62.3017   89.0434   11.2349 C.ar    1  UNL1        0.0192
     16 C          61.5589   89.7752   10.1566 C.ar    1  UNL1        0.0015
     17 C          60.7675   89.0091    9.1385 C.ar    1  UNL1        0.0000
     18 C          60.7188   87.5111    9.1987 C.ar    1  UNL1        0.0000
     19 C          61.4616   86.7792   10.2770 C.ar    1  UNL1        0.0001
     20 C          62.2531   87.5454   11.2950 C.ar    1  UNL1        0.0045
     21 C          62.9591   85.0030   15.0882 C.3     1  UNL1        0.0402
     22 C          62.2657   85.2556   16.3942 C.3     1  UNL1        0.0063
     23 C          63.7021   85.6506   16.2189 C.3     1  UNL1        0.0063
@<TRIPOS>BOND
     1     1     2    1
     2     2     3   ar
     3     3     4   ar
     4     4     5   ar
     5     5     6   ar
     6     6     7   ar
     7     7    11    1
     8    11    12   ar
     9    12    13   ar
    10    13    14   ar
    11    14    15   ar
    12    15    16   ar
    13    16    17   ar
    14    17    18   ar
    15    18    19   ar
    16    19    20   ar
    17     7     8   ar
    18     8    21    1
    19    21    22    1
    20    22    23    1
    21     8     9   ar
    22     9    10   ar
    23    10     2   ar
    24     9     5   ar
    25    20    11   ar
    26    23    21    1
    27    20    15   ar
@<TRIPOS>MOLECULE
*****
 23 27 0 0 0
SMALL
GASTEIGER

@<TRIPOS>ATOM
      1 F          64.4170   80.3732   14.5535 F       1  UNL1       -0.2026
      2 C          63.8712   81.3716   13.5760 C.ar    1  UNL1        0.1577
      3 C          63.2887   80.9058   12.2746 C.ar    1  UNL1        0.0343
      4 C          62.7429   81.9040   11.2971 C.ar    1  UNL1        0.0397
      5 C          62.7796   83.3681   11.6211 C.ar    1  UNL1        0.1476
      6 N          62.3200   84.5763   10.8601 N.ar    1  UNL1       -0.2268
      7 C          62.6184   85.7889   11.6912 C.ar    1  UNL1        0.0963
      8 C          63.2624   85.3301   12.9658 C.ar    1  UNL1        0.0601
      9 N          63.3620   83.8340   12.9225 N.ar    1  UNL1       -0.2906
     10 C          63.9078   82.8357   13.9000 C.ar    1  UNL1        0.1110
     11 C          62.3245   87.2106   11.3138 C.ar    1  UNL1        0.0380
     12 C          62.9394   88.3356   12.0923 C.ar    1  UNL1        0.1004
     13 N          62.6454   89.7573   11.7150 N.ar    1  UNL1       -0.2423
     14 C          61.7365   90.0539   10.5592 C.ar    1  UNL1        0.0988
     15 C          61.1215   88.9289    9.7807 C.ar    1  UNL1        0.0192
     16 C          60.2126   89.2255    8.6249 C.ar    1  UNL1        0.0015
     17 C          59.5977   88.1004    7.8464 C.ar    1  UNL1        0.0000
     18 C          59.8917   86.6787    8.2238 C.ar    1  UNL1        0.0000
     19 C          60.8006   86.3821    9.3795 C.ar    1  UNL1        0.0001
     20 C          61.4155   87.5072   10.1580 C.ar    1  UNL1        0.0045
     21 C          63.7256   86.2124   14.0870 C.3     1  UNL1        0.0402
     22 C          63.7035   86.5869   15.5394 C.3     1  UNL1        0.0063
     23 C          64.5497   87.3661   14.5766 C.3     1  UNL1        0.0063
@<TRIPOS>BOND
     1     1     2    1
     2     2     3   ar
     3     3     4   ar
     4     4     5   ar
     5     5     6   ar
     6     6     7   ar
     7     7    11    1
     8    11    12   ar
     9    12    13   ar
    10    13    14   ar
    11    14    15   ar
    12    15    16   ar
    13    16    17   ar
    14    17    18   ar
    15    18    19   ar
    16    19    20   ar
    17     7     8   ar
    18     8    21    1
    19    21    22    1
    20    22    23    1
    21     8     9   ar
    22     9    10   ar
    23    10     2   ar
    24     9     5   ar
    25    20    11   ar
    26    23    21    1
    27    20    15   ar
@<TRIPOS>MOLECULE
*****
 23 27 0 0 0
SMALL
GASTEIGER

@<TRIPOS>ATOM
      1 F          66.8453   94.5522   14.1926 F       1  UNL1       -0.2026
      2 C          66.0973   93.6583   13.2483 C.ar    1  UNL1        0.1577
      3 C          65.9449   94.0487   11.8080 C.ar    1  UNL1        0.0343
      4 C          65.1970   93.1549   10.8638 C.ar    1  UNL1        0.0397
      5 C          64.6015   91.8707   11.3598 C.ar    1  UNL1        0.1476
      6 N          63.8167   90.7953   10.6686 N.ar    1  UNL1       -0.2268
      7 C          63.4841   89.7403   11.6816 C.ar    1  UNL1        0.0963
      8 C          64.0633   90.1637   12.9989 C.ar    1  UNL1        0.0601
      9 N          64.7539   91.4803   12.8000 N.ar    1  UNL1       -0.2906
     10 C          65.5018   92.3741   13.7443 C.ar    1  UNL1        0.1110
     11 C          62.7084   88.4828   11.4228 C.ar    1  UNL1        0.0380
     12 C          62.9990   87.2451   12.2188 C.ar    1  UNL1        0.1004
     13 N          62.2234   85.9876   11.9600 N.ar    1  UNL1       -0.2423
     14 C          61.1571   85.9677   10.9052 C.ar    1  UNL1        0.0988
     15 C          60.8664   87.2055   10.1092 C.ar    1  UNL1        0.0192
     16 C          59.8002   87.1856    9.0544 C.ar    1  UNL1        0.0015
     17 C          59.5096   88.4233    8.2584 C.ar    1  UNL1        0.0000
     18 C          60.2852   89.6808    8.5172 C.ar    1  UNL1        0.0000
     19 C          61.3515   89.7007    9.5720 C.ar    1  UNL1        0.0001
     20 C          61.6421   88.4630   10.3680 C.ar    1  UNL1        0.0045
     21 C          63.9685   89.4038   14.2888 C.3     1  UNL1        0.0402
     22 C          64.2590   88.1732   15.0958 C.3     1  UNL1        0.0063
     23 C          63.5140   89.3181   15.7156 C.3     1  UNL1        0.0063
@<TRIPOS>BOND
     1     1     2    1
     2     2     3   ar
     3     3     4   ar
     4     4     5   ar
     5     5     6   ar
     6     6     7   ar
     7     7    11    1
     8    11    12   ar
     9    12    13   ar
    10    13    14   ar
    11    14    15   ar
    12    15    16   ar
    13    16    17   ar
    14    17    18   ar
    15    18    19   ar
    16    19    20   ar
    17     7     8   ar
    18     8    21    1
    19    21    22    1
    20    22    23    1
    21     8     9   ar
    22     9    10   ar
    23    10     2   ar
    24     9     5   ar
    25    20    11   ar
    26    23    21    1
    27    20    15   ar
@<TRIPOS>MOLECULE
*****
 23 27 0 0 0
SMALL
GASTEIGER

@<TRIPOS>ATOM
      1 F          67.0647   93.5480   16.1829 F       1  UNL1       -0.2026
      2 C          65.9320   92.6419   15.8006 C.ar    1  UNL1        0.1577
      3 C          65.1499   91.9295   16.8640 C.ar    1  UNL1        0.0343
      4 C          64.0173   91.0234   16.4818 C.ar    1  UNL1        0.0397
      5 C          63.6668   90.8297   15.0363 C.ar    1  UNL1        0.1476
      6 N          62.6107   90.0057   14.3612 N.ar    1  UNL1       -0.2268
      7 C          62.7401   90.2087   12.8807 C.ar    1  UNL1        0.0963
      8 C          63.8762   91.1583   12.6407 C.ar    1  UNL1        0.0601
      9 N          64.4489   91.5421   13.9729 N.ar    1  UNL1       -0.2906
     10 C          65.5816   92.4482   14.3551 C.ar    1  UNL1        0.1110
     11 C          61.8838   89.5738   11.8255 C.ar    1  UNL1        0.0380
     12 C          60.9056   90.4070   11.0518 C.ar    1  UNL1        0.1004
     13 N          60.0493   89.7721    9.9965 N.ar    1  UNL1       -0.2423
     14 C          60.1712   88.3038    9.7150 C.ar    1  UNL1        0.0988
     15 C          61.1495   87.4705   10.4886 C.ar    1  UNL1        0.0192
     16 C          61.2715   86.0022   10.2071 C.ar    1  UNL1        0.0015
     17 C          62.2497   85.1690   10.9807 C.ar    1  UNL1        0.0000
     18 C          63.1060   85.8039   12.0360 C.ar    1  UNL1        0.0000
     19 C          62.9841   87.2722   12.3176 C.ar    1  UNL1        0.0001
     20 C          62.0058   88.1054   11.5439 C.ar    1  UNL1        0.0045
     21 C          64.3555   91.6396   11.3033 C.3     1  UNL1        0.0402
     22 C          65.3983   92.3159   10.4634 C.3     1  UNL1        0.0063
     23 C          64.1430   91.7972    9.8269 C.3     1  UNL1        0.0063
@<TRIPOS>BOND
     1     1     2    1
     2     2     3   ar
     3     3     4   ar
     4     4     5   ar
     5     5     6   ar
     6     6     7   ar
     7     7    11    1
     8    11    12   ar
     9    12    13   ar
    10    13    14   ar
    11    14    15   ar
    12    15    16   ar
    13    16    17   ar
    14    17    18   ar
    15    18    19   ar
    16    19    20   ar
    17     7     8   ar
    18     8    21    1
    19    21    22    1
    20    22    23    1
    21     8     9   ar
    22     9    10   ar
    23    10     2   ar
    24     9     5   ar
    25    20    11   ar
    26    23    21    1
    27    20    15   ar
@<TRIPOS>MOLECULE
*****
 23 27 0 0 0
SMALL
GASTEIGER

@<TRIPOS>ATOM
      1 F          63.2089   91.8629   10.6693 F       1  UNL1       -0.2026
      2 C          62.7604   90.4320   10.7060 C.ar    1  UNL1        0.1577
      3 C          61.8214   89.9132    9.6575 C.ar    1  UNL1        0.0343
      4 C          61.3729   88.4824    9.6941 C.ar    1  UNL1        0.0397
      5 C          61.8633   87.5702   10.7791 C.ar    1  UNL1        0.1476
      6 N          61.5962   86.1233   11.0711 N.ar    1  UNL1       -0.2268
      7 C          62.3701   85.7478   12.3000 C.ar    1  UNL1        0.0963
      8 C          63.1154   86.9627   12.7675 C.ar    1  UNL1        0.0601
      9 N          62.8023   88.0889   11.8276 N.ar    1  UNL1       -0.2906
     10 C          63.2508   89.5198   11.7910 C.ar    1  UNL1        0.1110
     11 C          62.3943   84.3951   12.9476 C.ar    1  UNL1        0.0380
     12 C          62.0609   84.2543   14.4033 C.ar    1  UNL1        0.1004
     13 N          62.0851   82.9016   15.0509 N.ar    1  UNL1       -0.2423
     14 C          62.4427   81.6895   14.2428 C.ar    1  UNL1        0.0988
     15 C          62.7760   81.8302   12.7870 C.ar    1  UNL1        0.0192
     16 C          63.1336   80.6181   11.9790 C.ar    1  UNL1        0.0015
     17 C          63.4669   80.7588   10.5233 C.ar    1  UNL1        0.0000
     18 C          63.4427   82.1116    9.8757 C.ar    1  UNL1        0.0000
     19 C          63.0852   83.3237   10.6837 C.ar    1  UNL1        0.0001
     20 C          62.7518   83.1829   12.1394 C.ar    1  UNL1        0.0045
     21 C          64.0159   87.0380   13.9648 C.3     1  UNL1        0.0402
     22 C          64.6528   87.8370   15.0630 C.3     1  UNL1        0.0063
     23 C          64.9387   86.3696   14.9403 C.3     1  UNL1        0.0063
@<TRIPOS>BOND
     1     1     2    1
     2     2     3   ar
     3     3     4   ar
     4     4     5   ar
     5     5     6   ar
     6     6     7   ar
     7     7    11    1
     8    11    12   ar
     9    12    13   ar
    10    13    14   ar
    11    14    15   ar
    12    15    16   ar
    13    16    17   ar
    14    17    18   ar
    15    18    19   ar
    16    19    20   ar
    17     7     8   ar
    18     8    21    1
    19    21    22    1
    20    22    23    1
    21     8     9   ar
    22     9    10   ar
    23    10     2   ar
    24     9     5   ar
    25    20    11   ar
    26    23    21    1
    27    20    15   ar
