@<TRIPOS>MOLECULE
*****
 23 24 0 0 0
SMALL
GASTEIGER

@<TRIPOS>ATOM
      1 C          66.4430   92.6597   12.9113 C.ar    1  UNL1        0.2059
      2 C          65.2826   91.9693   13.5645 C.ar    1  UNL1        0.1754
      3 C          64.1405   91.4700   12.7300 C.ar    1  UNL1        0.0403
      4 C          64.1588   91.6613   11.2424 C.ar    1  UNL1        0.0063
      5 C          65.3192   92.3518   10.5892 C.ar    1  UNL1        0.0403
      6 C          66.4613   92.8510   11.4237 C.ar    1  UNL1        0.1754
      7 O          65.2643   91.7779   15.0521 O.3     1  UNL1       -0.4683
      8 C          64.0942   91.1062   15.7076 C.3     1  UNL1        0.2526
      9 C          63.0167   91.1621   10.4079 C.2     1  UNL1        0.0035
     10 C          62.0256   90.1996   10.9920 C.2     1  UNL1        0.0420
     11 C          60.8835   89.7004   10.1575 C.2     1  UNL1        0.1957
     12 O          59.6315   90.5172   10.0342 O.2     1  UNL1       -0.2866
     13 C          60.9934   88.3842    9.4463 C.ar    1  UNL1        0.0420
     14 C          59.8948   87.9326    8.5303 C.ar    1  UNL1        0.0239
     15 C          60.0047   86.6165    7.8191 C.ar    1  UNL1        0.0990
     16 N          61.2133   85.7520    8.0239 N.ar    1  UNL1       -0.2423
     17 C          62.3120   86.2036    8.9399 C.ar    1  UNL1        0.0990
     18 C          62.2020   87.5197    9.6511 C.ar    1  UNL1        0.0239
     19 O          67.6218   93.5415   10.7705 O.3     1  UNL1       -0.4683
     20 C          67.6826   93.6549    9.2760 C.3     1  UNL1        0.2526
     21 O          67.5851   93.1590   13.7458 O.3     1  UNL1       -0.4695
     22 C          68.5781   92.4252   16.0318 C.3     1  UNL1        0.0512
     23 C          68.3960   92.1954   14.5607 C.3     1  UNL1        0.2058
@<TRIPOS>BOND
     1    22    23    1
     2    23    21    1
     3    21     1    1
     4     1     2   ar
     5     2     7    1
     6     7     8    1
     7     2     3   ar
     8     3     4   ar
     9     4     9    1
    10     9    10    2
    11    10    11    1
    12    11    12    2
    13    11    13    1
    14    13    14   ar
    15    14    15   ar
    16    15    16   ar
    17    16    17   ar
    18    17    18   ar
    19     4     5   ar
    20     5     6   ar
    21     6    19    1
    22    19    20    1
    23     6     1   ar
    24    18    13   ar
@<TRIPOS>MOLECULE
*****
 23 24 0 0 0
SMALL
GASTEIGER

@<TRIPOS>ATOM
      1 C          66.4994   92.4054   12.8228 C.ar    1  UNL1        0.2059
      2 C          66.3953   92.7728   11.3722 C.ar    1  UNL1        0.1754
      3 C          65.1915   92.3598   10.5784 C.ar    1  UNL1        0.0403
      4 C          64.0917   91.5793   11.2351 C.ar    1  UNL1        0.0063
      5 C          64.1958   91.2119   12.6857 C.ar    1  UNL1        0.0403
      6 C          65.3997   91.6249   13.4795 C.ar    1  UNL1        0.1754
      7 O          67.4951   93.5533   10.7155 O.3     1  UNL1       -0.4683
      8 C          67.9328   93.2066    9.3233 C.3     1  UNL1        0.2526
      9 C          62.8879   91.1663   10.4413 C.2     1  UNL1        0.0035
     10 C          62.0646   89.9929   10.8832 C.2     1  UNL1        0.0420
     11 C          60.8607   89.5799   10.0894 C.2     1  UNL1        0.1957
     12 O          59.6484   90.4623   10.0516 O.2     1  UNL1       -0.2866
     13 C          60.8693   88.2843    9.3333 C.ar    1  UNL1        0.0420
     14 C          59.7196   87.9316    8.4368 C.ar    1  UNL1        0.0239
     15 C          59.7281   86.6360    7.6807 C.ar    1  UNL1        0.0990
     16 N          60.8864   85.6933    7.8213 N.ar    1  UNL1       -0.2423
     17 C          62.0361   86.0461    8.7178 C.ar    1  UNL1        0.0990
     18 C          62.0275   87.3416    9.4738 C.ar    1  UNL1        0.0239
     19 O          65.5037   91.2574   14.9301 O.3     1  UNL1       -0.4683
     20 C          64.2666   91.1802   15.7748 C.3     1  UNL1        0.2526
     21 O          67.7033   92.8184   13.6166 O.3     1  UNL1       -0.4695
     22 C          68.5020   93.4129   16.0163 C.3     1  UNL1        0.0512
     23 C          67.5329   93.5983   14.8865 C.3     1  UNL1        0.2058
@<TRIPOS>BOND
     1    22    23    1
     2    23    21    1
     3    21     1    1
     4     1     2   ar
     5     2     7    1
     6     7     8    1
     7     2     3   ar
     8     3     4   ar
     9     4     9    1
    10     9    10    2
    11    10    11    1
    12    11    12    2
    13    11    13    1
    14    13    14   ar
    15    14    15   ar
    16    15    16   ar
    17    16    17   ar
    18    17    18   ar
    19     4     5   ar
    20     5     6   ar
    21     6    19    1
    22    19    20    1
    23     6     1   ar
    24    18    13   ar
@<TRIPOS>MOLECULE
*****
 23 24 0 0 0
SMALL
GASTEIGER

@<TRIPOS>ATOM
      1 C          62.7664   84.7913   12.2844 C.ar    1  UNL1        0.2059
      2 C          63.5635   85.0531   13.5277 C.ar    1  UNL1        0.1754
      3 C          63.9331   86.4585   13.8996 C.ar    1  UNL1        0.0403
      4 C          63.5055   87.6020   13.0282 C.ar    1  UNL1        0.0063
      5 C          62.7083   87.3402   11.7849 C.ar    1  UNL1        0.0403
      6 C          62.3388   85.9348   11.4130 C.ar    1  UNL1        0.1754
      7 O          63.9912   83.9095   14.3992 O.3     1  UNL1       -0.4683
      8 C          63.0076   83.2703   15.3340 C.3     1  UNL1        0.2526
      9 C          63.8750   89.0074   13.4001 C.2     1  UNL1        0.0035
     10 C          63.8897   89.4226   14.8414 C.2     1  UNL1        0.0420
     11 C          64.2592   90.8280   15.2133 C.2     1  UNL1        0.1957
     12 O          63.5490   91.5169   16.3406 O.2     1  UNL1       -0.2866
     13 C          65.3391   91.5445   14.4579 C.ar    1  UNL1        0.0420
     14 C          65.0371   92.1663   13.1267 C.ar    1  UNL1        0.0239
     15 C          66.1170   92.8827   12.3712 C.ar    1  UNL1        0.0990
     16 N          67.4988   92.9774   12.9470 N.ar    1  UNL1       -0.2423
     17 C          67.8008   92.3555   14.2783 C.ar    1  UNL1        0.0990
     18 C          66.7210   91.6391   15.0337 C.ar    1  UNL1        0.0239
     19 O          61.5415   85.6730   10.1696 O.3     1  UNL1       -0.4683
     20 C          62.1671   85.8747    8.8212 C.3     1  UNL1        0.2526
     21 O          62.3968   83.3859   11.9125 O.3     1  UNL1       -0.4695
     22 C          64.3231   83.0387   10.2040 C.3     1  UNL1        0.0512
     23 C          63.4093   82.4917   11.2603 C.3     1  UNL1        0.2058
@<TRIPOS>BOND
     1    22    23    1
     2    23    21    1
     3    21     1    1
     4     1     2   ar
     5     2     7    1
     6     7     8    1
     7     2     3   ar
     8     3     4   ar
     9     4     9    1
    10     9    10    2
    11    10    11    1
    12    11    12    2
    13    11    13    1
    14    13    14   ar
    15    14    15   ar
    16    15    16   ar
    17    16    17   ar
    18    17    18   ar
    19     4     5   ar
    20     5     6   ar
    21     6    19    1
    22    19    20    1
    23     6     1   ar
    24    18    13   ar
@<TRIPOS>MOLECULE
*****
 23 24 0 0 0
SMALL
GASTEIGER

@<TRIPOS>ATOM
      1 C          62.7784   84.7539   12.3114 C.ar    1  UNL1        0.2059
      2 C          62.3166   85.8920   11.4504 C.ar    1  UNL1        0.1754
      3 C          62.6774   87.3019   11.8138 C.ar    1  UNL1        0.0403
      4 C          63.5001   87.5736   13.0382 C.ar    1  UNL1        0.0063
      5 C          63.9620   86.4355   13.8992 C.ar    1  UNL1        0.0403
      6 C          63.6011   85.0257   13.5358 C.ar    1  UNL1        0.1754
      7 O          61.4938   85.6203   10.2259 O.3     1  UNL1       -0.4683
      8 C          61.7794   86.3580    8.9515 C.3     1  UNL1        0.2526
      9 C          63.8610   88.9835   13.4017 C.2     1  UNL1        0.0035
     10 C          63.8901   89.4028   14.8415 C.2     1  UNL1        0.0420
     11 C          64.2510   90.8127   15.2049 C.2     1  UNL1        0.1957
     12 O          63.5378   91.5034   16.3293 O.2     1  UNL1       -0.2866
     13 C          65.3251   91.5319   14.4439 C.ar    1  UNL1        0.0420
     14 C          66.6998   91.6628   15.0296 C.ar    1  UNL1        0.0239
     15 C          67.7739   92.3820   14.2686 C.ar    1  UNL1        0.0990
     16 N          67.4733   92.9703   12.9219 N.ar    1  UNL1       -0.2423
     17 C          66.0985   92.8393   12.3362 C.ar    1  UNL1        0.0990
     18 C          65.0245   92.1201   13.0972 C.ar    1  UNL1        0.0239
     19 O          64.0631   83.8875   14.3969 O.3     1  UNL1       -0.4683
     20 C          63.0882   83.1793   15.2902 C.3     1  UNL1        0.2526
     21 O          62.4176   83.3440   11.9480 O.3     1  UNL1       -0.4695
     22 C          64.2903   83.0053   10.1794 C.3     1  UNL1        0.0512
     23 C          63.4278   82.4600   11.2789 C.3     1  UNL1        0.2058
@<TRIPOS>BOND
     1    22    23    1
     2    23    21    1
     3    21     1    1
     4     1     2   ar
     5     2     7    1
     6     7     8    1
     7     2     3   ar
     8     3     4   ar
     9     4     9    1
    10     9    10    2
    11    10    11    1
    12    11    12    2
    13    11    13    1
    14    13    14   ar
    15    14    15   ar
    16    15    16   ar
    17    16    17   ar
    18    17    18   ar
    19     4     5   ar
    20     5     6   ar
    21     6    19    1
    22    19    20    1
    23     6     1   ar
    24    18    13   ar
@<TRIPOS>MOLECULE
*****
 23 24 0 0 0
SMALL
GASTEIGER

@<TRIPOS>ATOM
      1 C          62.0332   86.8172   10.9892 C.ar    1  UNL1        0.2059
      2 C          62.8192   86.1270   12.0642 C.ar    1  UNL1        0.1754
      3 C          63.5464   86.9350   13.0979 C.ar    1  UNL1        0.0403
      4 C          63.4875   88.4332   13.0565 C.ar    1  UNL1        0.0063
      5 C          62.7015   89.1235   11.9814 C.ar    1  UNL1        0.0403
      6 C          61.9743   88.3154   10.9478 C.ar    1  UNL1        0.1754
      7 O          62.8782   84.6287   12.1057 O.3     1  UNL1       -0.4683
      8 C          62.7983   83.9110   13.4204 C.3     1  UNL1        0.2526
      9 C          64.2146   89.2413   14.0901 C.2     1  UNL1        0.0035
     10 C          63.8218   90.6671   14.3402 C.2     1  UNL1        0.0420
     11 C          64.5489   91.4751   15.3739 C.2     1  UNL1        0.1957
     12 O          63.8642   91.8422   16.6569 O.2     1  UNL1       -0.2866
     13 C          65.9608   91.9160   15.1243 C.ar    1  UNL1        0.0420
     14 C          66.7127   92.6612   16.1870 C.ar    1  UNL1        0.0239
     15 C          68.1246   93.1021   15.9375 C.ar    1  UNL1        0.0990
     16 N          68.7845   92.7978   14.6253 N.ar    1  UNL1       -0.2423
     17 C          68.0325   92.0526   13.5626 C.ar    1  UNL1        0.0990
     18 C          66.6207   91.6118   13.8121 C.ar    1  UNL1        0.0239
     19 O          61.1883   89.0057    9.8727 O.3     1  UNL1       -0.4683
     20 C          60.1922   90.0668   10.2359 C.3     1  UNL1        0.2526
     21 O          61.3061   86.0092    9.9556 O.3     1  UNL1       -0.4695
     22 C          63.1082   85.1759    8.2799 C.3     1  UNL1        0.0512
     23 C          61.8396   85.9271    8.5561 C.3     1  UNL1        0.2058
@<TRIPOS>BOND
     1    22    23    1
     2    23    21    1
     3    21     1    1
     4     1     2   ar
     5     2     7    1
     6     7     8    1
     7     2     3   ar
     8     3     4   ar
     9     4     9    1
    10     9    10    2
    11    10    11    1
    12    11    12    2
    13    11    13    1
    14    13    14   ar
    15    14    15   ar
    16    15    16   ar
    17    16    17   ar
    18    17    18   ar
    19     4     5   ar
    20     5     6   ar
    21     6    19    1
    22    19    20    1
    23     6     1   ar
    24    18    13   ar
@<TRIPOS>MOLECULE
*****
 23 24 0 0 0
SMALL
GASTEIGER

@<TRIPOS>ATOM
      1 C          62.0977   86.8772   10.9190 C.ar    1  UNL1        0.2059
      2 C          62.0975   88.3758   10.8555 C.ar    1  UNL1        0.1754
      3 C          62.8123   89.1712   11.9073 C.ar    1  UNL1        0.0403
      4 C          63.5275   88.4680   13.0226 C.ar    1  UNL1        0.0063
      5 C          63.5278   86.9694   13.0861 C.ar    1  UNL1        0.0403
      6 C          62.8129   86.1740   12.0343 C.ar    1  UNL1        0.1754
      7 O          61.3823   89.0791    9.7401 O.3     1  UNL1       -0.4683
      8 C          60.1199   89.8393   10.0202 C.3     1  UNL1        0.2526
      9 C          64.2424   89.2634   14.0744 C.2     1  UNL1        0.0035
     10 C          63.8805   90.7010   14.3028 C.2     1  UNL1        0.0420
     11 C          64.5954   91.4964   15.3546 C.2     1  UNL1        0.1957
     12 O          63.8948   91.8502   16.6328 O.2     1  UNL1       -0.2866
     13 C          66.0110   91.9380   15.1281 C.ar    1  UNL1        0.0420
     14 C          66.7370   92.7048   16.1934 C.ar    1  UNL1        0.0239
     15 C          68.1526   93.1463   15.9669 C.ar    1  UNL1        0.0990
     16 N          68.8421   92.8211   14.6751 N.ar    1  UNL1       -0.2423
     17 C          68.1160   92.0544   13.6097 C.ar    1  UNL1        0.0990
     18 C          66.7005   91.6128   13.8363 C.ar    1  UNL1        0.0239
     19 O          62.8132   84.6753   12.0979 O.3     1  UNL1       -0.4683
     20 C          62.7731   83.9810   13.4269 C.3     1  UNL1        0.2526
     21 O          61.3828   86.0818    9.8672 O.3     1  UNL1       -0.4695
     22 C          63.2680   85.1146    8.3637 C.3     1  UNL1        0.0512
     23 C          62.0010   85.9036    8.5122 C.3     1  UNL1        0.2058
@<TRIPOS>BOND
     1    22    23    1
     2    23    21    1
     3    21     1    1
     4     1     2   ar
     5     2     7    1
     6     7     8    1
     7     2     3   ar
     8     3     4   ar
     9     4     9    1
    10     9    10    2
    11    10    11    1
    12    11    12    2
    13    11    13    1
    14    13    14   ar
    15    14    15   ar
    16    15    16   ar
    17    16    17   ar
    18    17    18   ar
    19     4     5   ar
    20     5     6   ar
    21     6    19    1
    22    19    20    1
    23     6     1   ar
    24    18    13   ar
@<TRIPOS>MOLECULE
*****
 23 24 0 0 0
SMALL
GASTEIGER

@<TRIPOS>ATOM
      1 C          60.7380   86.7578    9.0242 C.ar    1  UNL1        0.2059
      2 C          61.7839   86.4607   10.0576 C.ar    1  UNL1        0.1754
      3 C          62.2852   87.5545   10.9534 C.ar    1  UNL1        0.0403
      4 C          61.7407   88.9453   10.8157 C.ar    1  UNL1        0.0063
      5 C          60.6948   89.2424    9.7824 C.ar    1  UNL1        0.0403
      6 C          60.1935   88.1486    8.8866 C.ar    1  UNL1        0.1754
      7 O          62.3285   85.0698   10.1953 O.3     1  UNL1       -0.4683
      8 C          62.6421   84.5183   11.5544 C.3     1  UNL1        0.2526
      9 C          62.2420   90.0391   11.7115 C.2     1  UNL1        0.0035
     10 C          63.3738   89.7728   12.6591 C.2     1  UNL1        0.0420
     11 C          63.8751   90.8666   13.5548 C.2     1  UNL1        0.1957
     12 O          63.3634   90.9786   14.9604 O.2     1  UNL1       -0.2866
     13 C          64.8882   91.8484   13.0450 C.ar    1  UNL1        0.0420
     14 C          64.9733   92.1441   11.5769 C.ar    1  UNL1        0.0239
     15 C          65.9864   93.1259   11.0671 C.ar    1  UNL1        0.0990
     16 N          66.9143   93.8119   12.0254 N.ar    1  UNL1       -0.2423
     17 C          66.8292   93.5161   13.4935 C.ar    1  UNL1        0.0990
     18 C          65.8162   92.5344   14.0033 C.ar    1  UNL1        0.0239
     19 O          59.1476   88.4458    7.8532 O.3     1  UNL1       -0.4683
     20 C          59.4718   89.3407    6.6938 C.3     1  UNL1        0.2526
     21 O          60.2367   85.6640    8.1285 O.3     1  UNL1       -0.4695
     22 C          62.2949   84.7888    6.8064 C.3     1  UNL1        0.0512
     23 C          60.9214   85.3916    6.8220 C.3     1  UNL1        0.2058
@<TRIPOS>BOND
     1    22    23    1
     2    23    21    1
     3    21     1    1
     4     1     2   ar
     5     2     7    1
     6     7     8    1
     7     2     3   ar
     8     3     4   ar
     9     4     9    1
    10     9    10    2
    11    10    11    1
    12    11    12    2
    13    11    13    1
    14    13    14   ar
    15    14    15   ar
    16    15    16   ar
    17    16    17   ar
    18    17    18   ar
    19     4     5   ar
    20     5     6   ar
    21     6    19    1
    22    19    20    1
    23     6     1   ar
    24    18    13   ar
@<TRIPOS>MOLECULE
*****
 23 24 0 0 0
SMALL
GASTEIGER

@<TRIPOS>ATOM
      1 C          63.2417   82.5411   12.7885 C.ar    1  UNL1        0.2059
      2 C          63.4288   82.7493   11.3149 C.ar    1  UNL1        0.1754
      3 C          63.1735   84.0979   10.7096 C.ar    1  UNL1        0.0403
      4 C          62.7311   85.2381   11.5780 C.ar    1  UNL1        0.0063
      5 C          62.5440   85.0299   13.0516 C.ar    1  UNL1        0.0403
      6 C          62.7993   83.6813   13.6568 C.ar    1  UNL1        0.1754
      7 O          63.8712   81.6090   10.4465 O.3     1  UNL1       -0.4683
      8 C          62.9179   80.4960   10.1268 C.3     1  UNL1        0.2526
      9 C          62.4759   86.5866   10.9727 C.2     1  UNL1        0.0035
     10 C          62.5508   87.8180   11.8259 C.2     1  UNL1        0.0420
     11 C          62.2955   89.1665   11.2206 C.2     1  UNL1        0.1957
     12 O          61.0918   89.3832   10.3523 O.2     1  UNL1       -0.2866
     13 C          63.2441   90.2984   11.4837 C.ar    1  UNL1        0.0420
     14 C          63.6091   91.2435   10.3776 C.ar    1  UNL1        0.0239
     15 C          64.5577   92.3754   10.6406 C.ar    1  UNL1        0.0990
     16 N          65.1412   92.5621   12.0098 N.ar    1  UNL1       -0.2423
     17 C          64.7761   91.6170   13.1159 C.ar    1  UNL1        0.0990
     18 C          63.8276   90.4851   12.8529 C.ar    1  UNL1        0.0239
     19 O          62.6122   83.4731   15.1305 O.3     1  UNL1       -0.4683
     20 C          62.5783   84.6529   16.0563 C.3     1  UNL1        0.2526
     21 O          63.4970   81.1926   13.3938 O.3     1  UNL1       -0.4695
     22 C          61.0057   80.7366   13.9731 C.3     1  UNL1        0.0512
     23 C          62.3630   80.2295   13.5850 C.3     1  UNL1        0.2058
@<TRIPOS>BOND
     1    22    23    1
     2    23    21    1
     3    21     1    1
     4     1     2   ar
     5     2     7    1
     6     7     8    1
     7     2     3   ar
     8     3     4   ar
     9     4     9    1
    10     9    10    2
    11    10    11    1
    12    11    12    2
    13    11    13    1
    14    13    14   ar
    15    14    15   ar
    16    15    16   ar
    17    16    17   ar
    18    17    18   ar
    19     4     5   ar
    20     5     6   ar
    21     6    19    1
    22    19    20    1
    23     6     1   ar
    24    18    13   ar
@<TRIPOS>MOLECULE
*****
 23 24 0 0 0
SMALL
GASTEIGER

@<TRIPOS>ATOM
      1 C          63.4777   82.7156   12.7429 C.ar    1  UNL1        0.2059
      2 C          63.1498   83.8252   13.6975 C.ar    1  UNL1        0.1754
      3 C          62.7975   85.1858   13.1735 C.ar    1  UNL1        0.0403
      4 C          62.7731   85.4369   11.6949 C.ar    1  UNL1        0.0063
      5 C          63.1010   84.3273   10.7403 C.ar    1  UNL1        0.0403
      6 C          63.4533   82.9667   11.2643 C.ar    1  UNL1        0.1754
      7 O          63.1741   83.5741   15.1762 O.3     1  UNL1       -0.4683
      8 C          62.5320   84.5531   16.1138 C.3     1  UNL1        0.2526
      9 C          62.4208   86.7975   11.1709 C.2     1  UNL1        0.0035
     10 C          62.7903   88.0219   11.9547 C.2     1  UNL1        0.0420
     11 C          62.4380   89.3825   11.4307 C.2     1  UNL1        0.1957
     12 O          61.1257   89.6030   10.7385 O.2     1  UNL1       -0.2866
     13 C          63.3981   90.5227   11.5989 C.ar    1  UNL1        0.0420
     14 C          63.7274   91.4044   10.4310 C.ar    1  UNL1        0.0239
     15 C          64.6875   92.5446   10.5992 C.ar    1  UNL1        0.0990
     16 N          65.3183   92.8030   11.9353 N.ar    1  UNL1       -0.2423
     17 C          64.9889   91.9212   13.1033 C.ar    1  UNL1        0.0990
     18 C          64.0289   90.7811   12.9351 C.ar    1  UNL1        0.0239
     19 O          63.7812   81.8571   10.3096 O.3     1  UNL1       -0.4683
     20 C          62.9489   80.6093   10.2956 C.3     1  UNL1        0.2526
     21 O          63.8300   81.3550   13.2669 O.3     1  UNL1       -0.4695
     22 C          61.3295   80.8807   13.7889 C.3     1  UNL1        0.0512
     23 C          62.7760   80.5027   13.9093 C.3     1  UNL1        0.2058
@<TRIPOS>BOND
     1    22    23    1
     2    23    21    1
     3    21     1    1
     4     1     2   ar
     5     2     7    1
     6     7     8    1
     7     2     3   ar
     8     3     4   ar
     9     4     9    1
    10     9    10    2
    11    10    11    1
    12    11    12    2
    13    11    13    1
    14    13    14   ar
    15    14    15   ar
    16    15    16   ar
    17    16    17   ar
    18    17    18   ar
    19     4     5   ar
    20     5     6   ar
    21     6    19    1
    22    19    20    1
    23     6     1   ar
    24    18    13   ar
