@<TRIPOS>MOLECULE
*****
 43 46 0 0 0
SMALL
GASTEIGER

@<TRIPOS>ATOM
      1 N          63.9142   87.8246   13.8549 N.ar    1  UNL1       -0.2470
      2 C          63.0157   88.1574   12.7009 C.ar    1  UNL1        0.2657
      3 O          62.5061   89.5574   12.5267 O.2     1  UNL1       -0.2668
      4 C          62.6268   87.0904   11.7211 C.ar    1  UNL1        0.0736
      5 C          63.1364   85.6904   11.8954 C.ar    1  UNL1        0.0847
      6 N          64.0349   85.3575   13.0494 N.ar    1  UNL1       -0.2755
      7 C          64.4238   86.4246   14.0292 C.ar    1  UNL1        0.3341
      8 O          65.3224   86.0917   15.1833 O.2     1  UNL1       -0.2462
      9 C          61.7283   87.4232   10.5670 C.ar    1  UNL1        0.0060
     10 C          61.5305   88.8529   10.1586 C.ar    1  UNL1       -0.0001
     11 C          60.6320   89.1858    9.0045 C.ar    1  UNL1       -0.0034
     12 C          59.9313   88.0890    8.2588 C.ar    1  UNL1       -0.0113
     13 C          60.1291   86.6593    8.6673 C.ar    1  UNL1       -0.0034
     14 C          61.0276   86.3264    9.8214 C.ar    1  UNL1       -0.0001
     15 C          59.0328   88.4219    7.1048 C.3     1  UNL1        0.0841
     16 S          58.7076   89.8533    6.7961 S.3     1  UNL1       -0.1294
     17 C          59.2052   90.4785    5.5266 C.3     1  UNL1        0.0993
     18 C          58.4491   91.6142    4.9033 C.2     1  UNL1        0.0612
     19 O          59.1760   92.6389    4.0839 O.co2   1  UNL1       -0.5483
     20 O          56.9661   91.7251    5.0995 O.co2   1  UNL1       -0.5483
     21 C          64.3032   88.8917   14.8348 C.3     1  UNL1        0.1334
     22 N          62.8460   91.0423   14.8723 N.3     1  UNL1       -0.3172
     23 C          64.1120   90.3375   14.4842 C.3     1  UNL1        0.0968
     24 H          62.2320   90.3926   15.3635 H       1  UNL1        0.1192
     25 H          62.3772   91.3854   14.0340 H       1  UNL1        0.1192
     26 C          65.1868   91.0787   13.7456 C.ar    1  UNL1       -0.0063
     27 C          66.5661   91.1758   14.3270 C.ar    1  UNL1       -0.0029
     28 C          67.6408   91.9169   13.5883 C.ar    1  UNL1       -0.0003
     29 C          67.3363   92.5609   12.2682 C.ar    1  UNL1       -0.0000
     30 C          65.9570   92.4637   11.6868 C.ar    1  UNL1       -0.0003
     31 C          64.8823   91.7226   12.4255 C.ar    1  UNL1       -0.0029
     32 C          64.5445   83.9575   13.2236 C.3     1  UNL1        0.1394
     33 C          63.5798   82.8106   13.2869 C.ar    1  UNL1        0.0319
     34 C          63.5924   81.7601   12.2162 C.ar    1  UNL1        0.1379
     35 F          64.5696   81.8565   11.0823 F       1  UNL1       -0.2044
     36 C          62.6277   80.6132   12.2795 C.ar    1  UNL1        0.0294
     37 C          61.6504   80.5168   13.4134 C.ar    1  UNL1        0.0022
     38 C          61.6379   81.5673   14.4840 C.ar    1  UNL1        0.0037
     39 C          62.6026   82.7143   14.4208 C.ar    1  UNL1        0.0714
     40 C          62.5900   83.7647   15.4914 C.3     1  UNL1        0.4184
     41 F          62.5775   84.8152   16.5620 F       1  UNL1       -0.1659
     42 F          63.8725   83.2170   16.0438 F       1  UNL1       -0.1659
     43 F          61.3076   84.3124   14.9390 F       1  UNL1       -0.1659
@<TRIPOS>UNITY_ATOM_ATTR
19 1
charge -1
@<TRIPOS>BOND
     1    23    22    1
     2    23    21    1
     3    21     1    1
     4     1     2   ar
     5     2     3    2
     6     2     4   ar
     7     4     9    1
     8     9    10   ar
     9    10    11   ar
    10    11    12   ar
    11    12    15    1
    12    15    16    1
    13    16    17    1
    14    17    18    1
    15    18    19   ar
    16    18    20   ar
    17    12    13   ar
    18    13    14   ar
    19     4     5   ar
    20     5     6   ar
    21     6    32    1
    22    32    33    1
    23    33    34   ar
    24    34    35    1
    25    34    36   ar
    26    36    37   ar
    27    37    38   ar
    28    38    39   ar
    29    39    40    1
    30    40    41    1
    31    40    42    1
    32    40    43    1
    33     6     7   ar
    34     7     8    2
    35    23    26    1
    36    26    27   ar
    37    27    28   ar
    38    28    29   ar
    39    29    30   ar
    40    30    31   ar
    41     7     1   ar
    42    31    26   ar
    43    14     9   ar
    44    39    33   ar
    45    22    24    1
    46    22    25    1
@<TRIPOS>MOLECULE
*****
 43 46 0 0 0
SMALL
GASTEIGER

@<TRIPOS>ATOM
      1 N          64.0081   88.0330   13.9710 N.ar    1  UNL1       -0.2470
      2 C          63.1388   88.3397   12.7877 C.ar    1  UNL1        0.2657
      3 O          62.7299   89.7548   12.5042 O.2     1  UNL1       -0.2668
      4 C          62.6785   87.2314   11.8879 C.ar    1  UNL1        0.0736
      5 C          63.0874   85.8163   12.1714 C.ar    1  UNL1        0.0847
      6 N          63.9567   85.5096   13.3547 N.ar    1  UNL1       -0.2755
      7 C          64.4170   86.6179   14.2545 C.ar    1  UNL1        0.3341
      8 O          65.2864   86.3112   15.4379 O.2     1  UNL1       -0.2462
      9 C          61.8092   87.5381   10.7045 C.ar    1  UNL1        0.0060
     10 C          61.4825   88.9616   10.3628 C.ar    1  UNL1       -0.0001
     11 C          60.6132   89.2684    9.1795 C.ar    1  UNL1       -0.0034
     12 C          60.0706   88.1515    8.3379 C.ar    1  UNL1       -0.0113
     13 C          60.3972   86.7280    8.6796 C.ar    1  UNL1       -0.0034
     14 C          61.2666   86.4213    9.8630 C.ar    1  UNL1       -0.0001
     15 C          59.2013   88.4583    7.1546 C.3     1  UNL1        0.0841
     16 S          58.8528   89.8803    6.8285 S.3     1  UNL1       -0.1294
     17 C          59.1294   90.4251    5.4586 C.3     1  UNL1        0.0993
     18 C          58.3311   91.5828    4.9366 C.2     1  UNL1        0.0612
     19 O          56.8354   91.5741    5.0496 O.co2   1  UNL1       -0.5483
     20 O          59.0285   92.7491    4.3015 O.co2   1  UNL1       -0.5483
     21 C          64.4685   89.1413   14.8708 C.3     1  UNL1        0.1334
     22 N          63.0837   91.3371   14.7665 N.3     1  UNL1       -0.3172
     23 C          64.3287   90.5693   14.4337 C.3     1  UNL1        0.0968
     24 H          62.4443   90.7381   15.2887 H       1  UNL1        0.1192
     25 H          62.6337   91.6451   13.9046 H       1  UNL1        0.1192
     26 C          65.4338   91.2297   13.6638 C.ar    1  UNL1       -0.0063
     27 C          66.8285   91.2425   14.2155 C.ar    1  UNL1       -0.0029
     28 C          67.9336   91.9028   13.4455 C.ar    1  UNL1       -0.0003
     29 C          67.6438   92.5504   12.1239 C.ar    1  UNL1       -0.0000
     30 C          66.2490   92.5376   11.5722 C.ar    1  UNL1       -0.0003
     31 C          65.1440   91.8773   12.3422 C.ar    1  UNL1       -0.0029
     32 C          64.3656   84.0945   13.6382 C.3     1  UNL1        0.1394
     33 C          63.3552   82.9896   13.5489 C.ar    1  UNL1        0.0319
     34 C          62.4565   82.6991   14.7143 C.ar    1  UNL1        0.1379
     35 F          62.5683   83.5135   15.9689 F       1  UNL1       -0.2044
     36 C          61.4460   81.5941   14.6250 C.ar    1  UNL1        0.0294
     37 C          61.3341   80.7797   13.3703 C.ar    1  UNL1        0.0022
     38 C          62.2327   81.0702   12.2050 C.ar    1  UNL1        0.0037
     39 C          63.2433   82.1751   12.2942 C.ar    1  UNL1        0.0714
     40 C          64.1419   82.4656   11.1289 C.3     1  UNL1        0.4184
     41 F          65.0405   82.7561    9.9636 F       1  UNL1       -0.1659
     42 F          65.2789   81.7912   11.8376 F       1  UNL1       -0.1659
     43 F          63.0049   83.1401   10.4203 F       1  UNL1       -0.1659
@<TRIPOS>UNITY_ATOM_ATTR
19 1
charge -1
@<TRIPOS>BOND
     1    23    22    1
     2    23    21    1
     3    21     1    1
     4     1     2   ar
     5     2     3    2
     6     2     4   ar
     7     4     9    1
     8     9    10   ar
     9    10    11   ar
    10    11    12   ar
    11    12    15    1
    12    15    16    1
    13    16    17    1
    14    17    18    1
    15    18    19   ar
    16    18    20   ar
    17    12    13   ar
    18    13    14   ar
    19     4     5   ar
    20     5     6   ar
    21     6    32    1
    22    32    33    1
    23    33    34   ar
    24    34    35    1
    25    34    36   ar
    26    36    37   ar
    27    37    38   ar
    28    38    39   ar
    29    39    40    1
    30    40    41    1
    31    40    42    1
    32    40    43    1
    33     6     7   ar
    34     7     8    2
    35    23    26    1
    36    26    27   ar
    37    27    28   ar
    38    28    29   ar
    39    29    30   ar
    40    30    31   ar
    41     7     1   ar
    42    31    26   ar
    43    14     9   ar
    44    39    33   ar
    45    22    24    1
    46    22    25    1
@<TRIPOS>MOLECULE
*****
 43 46 0 0 0
SMALL
GASTEIGER

@<TRIPOS>ATOM
      1 N          64.6976   91.3259   12.8439 N.ar    1  UNL1       -0.2470
      2 C          63.7156   90.9230   11.7841 C.ar    1  UNL1        0.2657
      3 O          63.3130   91.9037   10.7229 O.2     1  UNL1       -0.2668
      4 C          63.1362   89.5395   11.7854 C.ar    1  UNL1        0.0736
      5 C          63.5388   88.5588   12.8467 C.ar    1  UNL1        0.0847
      6 N          64.5208   88.9617   13.9065 N.ar    1  UNL1       -0.2755
      7 C          65.1002   90.3452   13.9051 C.ar    1  UNL1        0.3341
      8 O          66.0822   90.7481   14.9650 O.2     1  UNL1       -0.2462
      9 C          62.1541   89.1366   10.7255 C.ar    1  UNL1        0.0060
     10 C          61.0067   90.0402   10.3837 C.ar    1  UNL1       -0.0001
     11 C          60.0247   89.6373    9.3239 C.ar    1  UNL1       -0.0034
     12 C          60.1900   88.3308    8.6058 C.ar    1  UNL1       -0.0113
     13 C          61.3375   87.4271    8.9476 C.ar    1  UNL1       -0.0034
     14 C          62.3195   87.8300   10.0075 C.ar    1  UNL1       -0.0001
     15 C          59.2080   87.9279    7.5460 C.3     1  UNL1        0.0841
     16 S          58.5031   88.9774    6.7388 S.3     1  UNL1       -0.1294
     17 C          59.2971   89.9944    5.9739 C.3     1  UNL1        0.0993
     18 C          58.5988   91.1351    5.2947 C.2     1  UNL1        0.0612
     19 O          59.3981   92.1945    4.5958 O.co2   1  UNL1       -0.5483
     20 O          57.1011   91.2162    5.3146 O.co2   1  UNL1       -0.5483
     21 C          65.2770   92.7095   12.8426 C.3     1  UNL1        0.1334
     22 N          67.8273   92.2401   12.6819 N.3     1  UNL1       -0.3172
     23 C          66.6068   92.9651   12.1974 C.3     1  UNL1        0.0968
     24 H          67.5712   91.6182   13.4488 H       1  UNL1        0.1192
     25 H          68.5173   92.9165   13.0086 H       1  UNL1        0.1192
     26 C          66.7161   93.9457   11.0675 C.ar    1  UNL1       -0.0063
     27 C          67.3814   93.5416    9.7854 C.ar    1  UNL1       -0.0029
     28 C          67.4907   94.5222    8.6556 C.ar    1  UNL1       -0.0003
     29 C          66.9347   95.9070    8.8080 C.ar    1  UNL1       -0.0000
     30 C          66.2695   96.3112   10.0902 C.ar    1  UNL1       -0.0003
     31 C          66.1602   95.3305   11.2200 C.ar    1  UNL1       -0.0029
     32 C          64.9233   87.9810   14.9677 C.3     1  UNL1        0.1394
     33 C          63.8738   87.2260   15.7283 C.ar    1  UNL1        0.0319
     34 C          63.1318   87.8948   16.8474 C.ar    1  UNL1        0.1379
     35 F          63.4393   89.3185   17.2057 F       1  UNL1       -0.2044
     36 C          62.0823   87.1399   17.6080 C.ar    1  UNL1        0.0294
     37 C          61.7748   85.7161   17.2496 C.ar    1  UNL1        0.0022
     38 C          62.5168   85.0474   16.1306 C.ar    1  UNL1        0.0037
     39 C          63.5663   85.8023   15.3699 C.ar    1  UNL1        0.0714
     40 C          64.3083   85.1335   14.2510 C.3     1  UNL1        0.4184
     41 F          65.0503   84.4647   13.1320 F       1  UNL1       -0.1659
     42 F          63.1081   85.2857   13.3642 F       1  UNL1       -0.1659
     43 F          65.5085   84.9814   15.1377 F       1  UNL1       -0.1659
@<TRIPOS>UNITY_ATOM_ATTR
19 1
charge -1
@<TRIPOS>BOND
     1    23    22    1
     2    23    21    1
     3    21     1    1
     4     1     2   ar
     5     2     3    2
     6     2     4   ar
     7     4     9    1
     8     9    10   ar
     9    10    11   ar
    10    11    12   ar
    11    12    15    1
    12    15    16    1
    13    16    17    1
    14    17    18    1
    15    18    19   ar
    16    18    20   ar
    17    12    13   ar
    18    13    14   ar
    19     4     5   ar
    20     5     6   ar
    21     6    32    1
    22    32    33    1
    23    33    34   ar
    24    34    35    1
    25    34    36   ar
    26    36    37   ar
    27    37    38   ar
    28    38    39   ar
    29    39    40    1
    30    40    41    1
    31    40    42    1
    32    40    43    1
    33     6     7   ar
    34     7     8    2
    35    23    26    1
    36    26    27   ar
    37    27    28   ar
    38    28    29   ar
    39    29    30   ar
    40    30    31   ar
    41     7     1   ar
    42    31    26   ar
    43    14     9   ar
    44    39    33   ar
    45    22    24    1
    46    22    25    1
@<TRIPOS>MOLECULE
*****
 43 46 0 0 0
SMALL
GASTEIGER

@<TRIPOS>ATOM
      1 N          63.8725   87.4968   13.5314 N.ar    1  UNL1       -0.2470
      2 C          63.0239   87.9328   12.3740 C.ar    1  UNL1        0.2657
      3 O          62.9053   89.3899   12.0379 O.2     1  UNL1       -0.2668
      4 C          62.2939   86.9118   11.5527 C.ar    1  UNL1        0.0736
      5 C          62.4124   85.4548   11.8888 C.ar    1  UNL1        0.0847
      6 N          63.2611   85.0187   13.0462 N.ar    1  UNL1       -0.2755
      7 C          63.9911   86.0397   13.8675 C.ar    1  UNL1        0.3341
      8 O          64.8398   85.6037   15.0250 O.2     1  UNL1       -0.2462
      9 C          61.4452   87.3479   10.3952 C.ar    1  UNL1        0.0060
     10 C          61.0612   86.3608    9.3330 C.ar    1  UNL1       -0.0001
     11 C          60.2126   86.7968    8.1756 C.ar    1  UNL1       -0.0034
     12 C          59.7478   88.2199    8.0803 C.ar    1  UNL1       -0.0113
     13 C          60.1318   89.2069    9.1426 C.ar    1  UNL1       -0.0034
     14 C          60.9805   88.7709   10.3000 C.ar    1  UNL1       -0.0001
     15 C          58.8992   88.6558    6.9229 C.3     1  UNL1        0.0841
     16 S          59.4298   89.6553    5.9383 S.3     1  UNL1       -0.1294
     17 C          58.9597   91.0788    5.9873 C.3     1  UNL1        0.0993
     18 C          58.0780   91.6154    4.8989 C.2     1  UNL1        0.0612
     19 O          56.5887   91.4662    4.9982 O.co2   1  UNL1       -0.5483
     20 O          58.6855   92.3012    3.7112 O.co2   1  UNL1       -0.5483
     21 C          64.6026   88.5178   14.3528 C.3     1  UNL1        0.1334
     22 N          62.5920   90.0381   14.9818 N.3     1  UNL1       -0.3172
     23 C          64.0178   89.8861   14.5415 C.3     1  UNL1        0.0968
     24 H          62.1740   89.1158   15.1050 H       1  UNL1        0.1192
     25 H          62.0709   90.5558   14.2741 H       1  UNL1        0.1192
     26 C          64.8588   91.1024   14.2898 C.ar    1  UNL1       -0.0063
     27 C          64.9606   91.6705   12.9053 C.ar    1  UNL1       -0.0029
     28 C          65.8015   92.8868   12.6536 C.ar    1  UNL1       -0.0003
     29 C          66.5407   93.5351   13.7865 C.ar    1  UNL1       -0.0000
     30 C          66.4389   92.9670   15.1710 C.ar    1  UNL1       -0.0003
     31 C          65.5979   91.7507   15.4226 C.ar    1  UNL1       -0.0029
     32 C          63.3797   83.5617   13.3823 C.3     1  UNL1        0.1394
     33 C          63.3705   82.5363   12.2876 C.ar    1  UNL1        0.0319
     34 C          64.0785   82.8133   10.9945 C.ar    1  UNL1        0.1379
     35 F          64.7957   84.1157   10.7962 F       1  UNL1       -0.2044
     36 C          64.0693   81.7879    9.8997 C.ar    1  UNL1        0.0294
     37 C          63.3521   80.4855   10.0981 C.ar    1  UNL1        0.0022
     38 C          62.6441   80.2085   11.3911 C.ar    1  UNL1        0.0037
     39 C          62.6533   81.2339   12.4859 C.ar    1  UNL1        0.0714
     40 C          61.9453   80.9568   13.7789 C.3     1  UNL1        0.4184
     41 F          61.2373   80.6798   15.0719 F       1  UNL1       -0.1659
     42 F          60.6896   81.5576   13.2201 F       1  UNL1       -0.1659
     43 F          63.2009   80.3561   14.3377 F       1  UNL1       -0.1659
@<TRIPOS>UNITY_ATOM_ATTR
19 1
charge -1
@<TRIPOS>BOND
     1    23    22    1
     2    23    21    1
     3    21     1    1
     4     1     2   ar
     5     2     3    2
     6     2     4   ar
     7     4     9    1
     8     9    10   ar
     9    10    11   ar
    10    11    12   ar
    11    12    15    1
    12    15    16    1
    13    16    17    1
    14    17    18    1
    15    18    19   ar
    16    18    20   ar
    17    12    13   ar
    18    13    14   ar
    19     4     5   ar
    20     5     6   ar
    21     6    32    1
    22    32    33    1
    23    33    34   ar
    24    34    35    1
    25    34    36   ar
    26    36    37   ar
    27    37    38   ar
    28    38    39   ar
    29    39    40    1
    30    40    41    1
    31    40    42    1
    32    40    43    1
    33     6     7   ar
    34     7     8    2
    35    23    26    1
    36    26    27   ar
    37    27    28   ar
    38    28    29   ar
    39    29    30   ar
    40    30    31   ar
    41     7     1   ar
    42    31    26   ar
    43    14     9   ar
    44    39    33   ar
    45    22    24    1
    46    22    25    1
@<TRIPOS>MOLECULE
*****
 43 46 0 0 0
SMALL
GASTEIGER

@<TRIPOS>ATOM
      1 N          63.3410   86.8058   13.6043 N.ar    1  UNL1       -0.2470
      2 C          63.9909   88.1568   13.5539 C.ar    1  UNL1        0.2657
      3 O          64.9988   88.5436   14.5952 O.2     1  UNL1       -0.2668
      4 C          63.6328   89.1209   12.4620 C.ar    1  UNL1        0.0736
      5 C          62.6249   88.7341   11.4206 C.ar    1  UNL1        0.0847
      6 N          61.9750   87.3831   11.4711 N.ar    1  UNL1       -0.2755
      7 C          62.3331   86.4190   12.5630 C.ar    1  UNL1        0.3341
      8 O          61.6832   85.0680   12.6135 O.2     1  UNL1       -0.2462
      9 C          64.2827   90.4719   12.4115 C.ar    1  UNL1        0.0060
     10 C          65.0132   90.9981   13.6112 C.ar    1  UNL1       -0.0001
     11 C          65.6630   92.3490   13.5608 C.ar    1  UNL1       -0.0034
     12 C          65.5824   93.1739   12.3105 C.ar    1  UNL1       -0.0113
     13 C          64.8518   92.6477   11.1107 C.ar    1  UNL1       -0.0034
     14 C          64.2020   91.2967   11.1612 C.ar    1  UNL1       -0.0001
     15 C          66.2322   94.5249   12.2600 C.3     1  UNL1        0.0841
     16 S          65.9849   95.4329   11.0920 S.3     1  UNL1       -0.1294
     17 C          67.1197   95.8239   10.1925 C.3     1  UNL1        0.0993
     18 C          67.6890   94.8272    9.2269 C.2     1  UNL1        0.0612
     19 O          67.1920   94.7850    7.8123 O.co2   1  UNL1       -0.5483
     20 O          68.7555   93.8726    9.6760 O.co2   1  UNL1       -0.5483
     21 C          63.6991   85.8416   14.6962 C.3     1  UNL1        0.1334
     22 N          66.0016   84.6514   14.5182 N.3     1  UNL1       -0.3172
     23 C          64.5082   84.6185   14.3812 C.3     1  UNL1        0.0968
     24 H          66.2938   85.5765   14.8332 H       1  UNL1        0.1192
     25 H          66.4304   84.4485   13.6152 H       1  UNL1        0.1192
     26 C          63.8240   83.3625   13.9291 C.ar    1  UNL1       -0.0063
     27 C          62.7430   82.7525   14.7714 C.ar    1  UNL1       -0.0029
     28 C          62.0588   81.4966   14.3193 C.ar    1  UNL1       -0.0003
     29 C          62.4556   80.8506   13.0250 C.ar    1  UNL1       -0.0000
     30 C          63.5366   81.4606   12.1827 C.ar    1  UNL1       -0.0003
     31 C          64.2207   82.7165   12.6348 C.ar    1  UNL1       -0.0029
     32 C          60.9671   86.9963   10.4297 C.3     1  UNL1        0.1394
     33 C          61.4030   86.2459    9.2063 C.ar    1  UNL1        0.0319
     34 C          62.5837   85.3230    9.2734 C.ar    1  UNL1        0.1379
     35 F          63.3284   85.1507   10.5640 F       1  UNL1       -0.2044
     36 C          63.0196   84.5726    8.0500 C.ar    1  UNL1        0.0294
     37 C          62.2748   84.7449    6.7594 C.ar    1  UNL1        0.0022
     38 C          61.0942   85.6677    6.6922 C.ar    1  UNL1        0.0037
     39 C          60.6582   86.4182    7.9157 C.ar    1  UNL1        0.0714
     40 C          59.4776   87.3410    7.8485 C.3     1  UNL1        0.4184
     41 F          58.2970   88.2637    7.7813 F       1  UNL1       -0.1659
     42 F          58.5534   86.1596    7.8639 F       1  UNL1       -0.1659
     43 F          60.4018   88.5223    7.8332 F       1  UNL1       -0.1659
@<TRIPOS>UNITY_ATOM_ATTR
19 1
charge -1
@<TRIPOS>BOND
     1    23    22    1
     2    23    21    1
     3    21     1    1
     4     1     2   ar
     5     2     3    2
     6     2     4   ar
     7     4     9    1
     8     9    10   ar
     9    10    11   ar
    10    11    12   ar
    11    12    15    1
    12    15    16    1
    13    16    17    1
    14    17    18    1
    15    18    19   ar
    16    18    20   ar
    17    12    13   ar
    18    13    14   ar
    19     4     5   ar
    20     5     6   ar
    21     6    32    1
    22    32    33    1
    23    33    34   ar
    24    34    35    1
    25    34    36   ar
    26    36    37   ar
    27    37    38   ar
    28    38    39   ar
    29    39    40    1
    30    40    41    1
    31    40    42    1
    32    40    43    1
    33     6     7   ar
    34     7     8    2
    35    23    26    1
    36    26    27   ar
    37    27    28   ar
    38    28    29   ar
    39    29    30   ar
    40    30    31   ar
    41     7     1   ar
    42    31    26   ar
    43    14     9   ar
    44    39    33   ar
    45    22    24    1
    46    22    25    1
@<TRIPOS>MOLECULE
*****
 43 46 0 0 0
SMALL
GASTEIGER

@<TRIPOS>ATOM
      1 N          61.6046   88.0218   11.4643 N.ar    1  UNL1       -0.2470
      2 C          62.3041   89.3486   11.4530 C.ar    1  UNL1        0.2657
      3 O          61.7338   90.4904   10.6649 O.2     1  UNL1       -0.2668
      4 C          63.5739   89.5337   12.2297 C.ar    1  UNL1        0.0736
      5 C          64.1442   88.3919   13.0178 C.ar    1  UNL1        0.0847
      6 N          63.4447   87.0650   13.0291 N.ar    1  UNL1       -0.2755
      7 C          62.1749   86.8800   12.2524 C.ar    1  UNL1        0.3341
      8 O          61.4753   85.5531   12.2637 O.2     1  UNL1       -0.2462
      9 C          64.2735   90.8606   12.2184 C.ar    1  UNL1        0.0060
     10 C          64.3155   91.6755   10.9598 C.ar    1  UNL1       -0.0001
     11 C          65.0150   93.0023   10.9485 C.ar    1  UNL1       -0.0034
     12 C          65.6725   93.5143   12.1958 C.ar    1  UNL1       -0.0113
     13 C          65.6305   92.6993   13.4544 C.ar    1  UNL1       -0.0034
     14 C          64.9309   91.3724   13.4657 C.ar    1  UNL1       -0.0001
     15 C          66.3721   94.8411   12.1844 C.3     1  UNL1        0.0841
     16 S          66.0916   95.8275   11.0897 S.3     1  UNL1       -0.1294
     17 C          67.1330   96.1069   10.0470 C.3     1  UNL1        0.0993
     18 C          67.6214   95.0006    9.1595 C.2     1  UNL1        0.0612
     19 O          68.6527   94.0349    9.6633 O.co2   1  UNL1       -0.5483
     20 O          67.0785   94.8600    7.7682 O.co2   1  UNL1       -0.5483
     21 C          60.3348   87.8367   10.6875 C.3     1  UNL1        0.1334
     22 N          59.7267   88.9592    8.4247 N.3     1  UNL1       -0.3172
     23 C          60.3661   87.8372    9.1879 C.3     1  UNL1        0.0968
     24 H          59.3220   89.6284    9.0795 H       1  UNL1        0.1192
     25 H          58.9927   88.5860    7.8227 H       1  UNL1        0.1192
     26 C          61.0368   86.7157    8.4513 C.ar    1  UNL1       -0.0063
     27 C          62.4343   86.3098    8.8146 C.ar    1  UNL1       -0.0029
     28 C          63.1050   85.1883    8.0780 C.ar    1  UNL1       -0.0003
     29 C          62.3780   84.4727    6.9782 C.ar    1  UNL1       -0.0000
     30 C          60.9804   84.8787    6.6150 C.ar    1  UNL1       -0.0003
     31 C          60.3098   86.0001    7.3516 C.ar    1  UNL1       -0.0029
     32 C          64.0150   85.9232   13.8172 C.3     1  UNL1        0.1394
     33 C          63.4058   84.5571   13.7062 C.ar    1  UNL1        0.0319
     34 C          63.6344   83.7317   12.4746 C.ar    1  UNL1        0.1379
     35 F          64.4721   84.2727   11.3541 F       1  UNL1       -0.2044
     36 C          63.0252   82.3655   12.3636 C.ar    1  UNL1        0.0294
     37 C          62.1874   81.8246   13.4841 C.ar    1  UNL1        0.0022
     38 C          61.9588   82.6498   14.7156 C.ar    1  UNL1        0.0037
     39 C          62.5680   84.0161   14.8267 C.ar    1  UNL1        0.0714
     40 C          62.3394   84.8414   16.0582 C.3     1  UNL1        0.4184
     41 F          62.1108   85.6666   17.2897 F       1  UNL1       -0.1659
     42 F          60.9055   85.0344   15.6627 F       1  UNL1       -0.1659
     43 F          63.7733   84.6483   16.4537 F       1  UNL1       -0.1659
@<TRIPOS>UNITY_ATOM_ATTR
19 1
charge -1
@<TRIPOS>BOND
     1    23    22    1
     2    23    21    1
     3    21     1    1
     4     1     2   ar
     5     2     3    2
     6     2     4   ar
     7     4     9    1
     8     9    10   ar
     9    10    11   ar
    10    11    12   ar
    11    12    15    1
    12    15    16    1
    13    16    17    1
    14    17    18    1
    15    18    19   ar
    16    18    20   ar
    17    12    13   ar
    18    13    14   ar
    19     4     5   ar
    20     5     6   ar
    21     6    32    1
    22    32    33    1
    23    33    34   ar
    24    34    35    1
    25    34    36   ar
    26    36    37   ar
    27    37    38   ar
    28    38    39   ar
    29    39    40    1
    30    40    41    1
    31    40    42    1
    32    40    43    1
    33     6     7   ar
    34     7     8    2
    35    23    26    1
    36    26    27   ar
    37    27    28   ar
    38    28    29   ar
    39    29    30   ar
    40    30    31   ar
    41     7     1   ar
    42    31    26   ar
    43    14     9   ar
    44    39    33   ar
    45    22    24    1
    46    22    25    1
@<TRIPOS>MOLECULE
*****
 43 46 0 0 0
SMALL
GASTEIGER

@<TRIPOS>ATOM
      1 N          61.6649   86.8791   11.5165 N.ar    1  UNL1       -0.2470
      2 C          62.1883   88.0786   12.2494 C.ar    1  UNL1        0.2657
      3 O          61.5133   89.4086   12.0898 O.2     1  UNL1       -0.2668
      4 C          63.3868   87.9481   13.1419 C.ar    1  UNL1        0.0736
      5 C          64.0618   86.6181   13.3015 C.ar    1  UNL1        0.0847
      6 N          63.5383   85.4186   12.5686 N.ar    1  UNL1       -0.2755
      7 C          62.3399   85.5491   11.6761 C.ar    1  UNL1        0.3341
      8 O          61.8163   84.3495   10.9432 O.2     1  UNL1       -0.2462
      9 C          63.9103   89.1476   13.8748 C.ar    1  UNL1        0.0060
     10 C          64.5775   90.2571   13.1173 C.ar    1  UNL1       -0.0001
     11 C          65.1011   91.4566   13.8502 C.ar    1  UNL1       -0.0034
     12 C          64.9574   91.5466   15.3406 C.ar    1  UNL1       -0.0113
     13 C          64.2902   90.4371   16.0981 C.ar    1  UNL1       -0.0034
     14 C          63.7666   89.2375   15.3652 C.ar    1  UNL1       -0.0001
     15 C          65.4809   92.7461   16.0735 C.3     1  UNL1        0.0841
     16 S          66.9389   93.0911   16.0022 S.3     1  UNL1       -0.1294
     17 C          67.9352   92.0539   15.5760 C.3     1  UNL1        0.0993
     18 C          68.7227   92.2444   14.3136 C.2     1  UNL1        0.0612
     19 O          68.1166   91.8834   12.9899 O.co2   1  UNL1       -0.5483
     20 O          70.1163   92.7960   14.3750 O.co2   1  UNL1       -0.5483
     21 C          60.4663   87.0095   10.6240 C.3     1  UNL1        0.1334
     22 N          60.2878   88.7174    8.6743 N.3     1  UNL1       -0.3172
     23 C          60.6445   87.3487    9.1738 C.3     1  UNL1        0.0968
     24 H          59.9430   89.2832    9.4499 H       1  UNL1        0.1192
     25 H          59.5630   88.6408    7.9608 H       1  UNL1        0.1192
     26 C          61.1794   86.3192    8.2229 C.ar    1  UNL1       -0.0063
     27 C          60.2658   85.6761    7.2221 C.ar    1  UNL1       -0.0029
     28 C          60.8007   84.6466    6.2713 C.ar    1  UNL1       -0.0003
     29 C          62.2493   84.2603    6.3214 C.ar    1  UNL1       -0.0000
     30 C          63.1629   84.9034    7.3222 C.ar    1  UNL1       -0.0003
     31 C          62.6279   85.9328    8.2730 C.ar    1  UNL1       -0.0029
     32 C          64.2134   84.0886   12.7282 C.3     1  UNL1        0.1394
     33 C          63.3956   82.8596   12.9943 C.ar    1  UNL1        0.0319
     34 C          63.3389   81.7611   11.9744 C.ar    1  UNL1        0.1379
     35 F          64.0999   81.8916   10.6884 F       1  UNL1       -0.2044
     36 C          62.5211   80.5321   12.2405 C.ar    1  UNL1        0.0294
     37 C          61.7601   80.4016   13.5264 C.ar    1  UNL1        0.0022
     38 C          61.8167   81.5000   14.5463 C.ar    1  UNL1        0.0037
     39 C          62.6345   82.7290   14.2803 C.ar    1  UNL1        0.0714
     40 C          62.6912   83.8275   15.3002 C.3     1  UNL1        0.4184
     41 F          62.7479   84.9259   16.3200 F       1  UNL1       -0.1659
     42 F          61.3572   84.3298   14.8333 F       1  UNL1       -0.1659
     43 F          64.0252   83.3251   15.7670 F       1  UNL1       -0.1659
@<TRIPOS>UNITY_ATOM_ATTR
19 1
charge -1
@<TRIPOS>BOND
     1    23    22    1
     2    23    21    1
     3    21     1    1
     4     1     2   ar
     5     2     3    2
     6     2     4   ar
     7     4     9    1
     8     9    10   ar
     9    10    11   ar
    10    11    12   ar
    11    12    15    1
    12    15    16    1
    13    16    17    1
    14    17    18    1
    15    18    19   ar
    16    18    20   ar
    17    12    13   ar
    18    13    14   ar
    19     4     5   ar
    20     5     6   ar
    21     6    32    1
    22    32    33    1
    23    33    34   ar
    24    34    35    1
    25    34    36   ar
    26    36    37   ar
    27    37    38   ar
    28    38    39   ar
    29    39    40    1
    30    40    41    1
    31    40    42    1
    32    40    43    1
    33     6     7   ar
    34     7     8    2
    35    23    26    1
    36    26    27   ar
    37    27    28   ar
    38    28    29   ar
    39    29    30   ar
    40    30    31   ar
    41     7     1   ar
    42    31    26   ar
    43    14     9   ar
    44    39    33   ar
    45    22    24    1
    46    22    25    1
@<TRIPOS>MOLECULE
*****
 43 46 0 0 0
SMALL
GASTEIGER

@<TRIPOS>ATOM
      1 N          64.7418   91.3774   12.7288 N.ar    1  UNL1       -0.2470
      2 C          63.7453   90.9598   11.6883 C.ar    1  UNL1        0.2657
      3 O          63.3300   91.9247   10.6175 O.2     1  UNL1       -0.2668
      4 C          63.1641   89.5774   11.7186 C.ar    1  UNL1        0.0736
      5 C          63.5794   88.6125   12.7894 C.ar    1  UNL1        0.0847
      6 N          64.5759   89.0301   13.8299 N.ar    1  UNL1       -0.2755
      7 C          65.1570   90.4126   13.7996 C.ar    1  UNL1        0.3341
      8 O          66.1536   90.8302   14.8401 O.2     1  UNL1       -0.2462
      9 C          62.1676   89.1597   10.6781 C.ar    1  UNL1        0.0060
     10 C          60.9935   90.0402   10.3679 C.ar    1  UNL1       -0.0001
     11 C          59.9970   89.6226    9.3275 C.ar    1  UNL1       -0.0034
     12 C          60.1745   88.3244    8.5972 C.ar    1  UNL1       -0.0113
     13 C          61.3486   87.4439    8.9074 C.ar    1  UNL1       -0.0034
     14 C          62.3451   87.8615    9.9479 C.ar    1  UNL1       -0.0001
     15 C          59.1780   87.9068    7.5568 C.3     1  UNL1        0.0841
     16 S          58.4686   88.9446    6.7385 S.3     1  UNL1       -0.1294
     17 C          59.2582   89.9348    5.9349 C.3     1  UNL1        0.0993
     18 C          58.5724   91.1186    5.3197 C.2     1  UNL1        0.0612
     19 O          57.0745   91.1946    5.3071 O.co2   1  UNL1       -0.5483
     20 O          59.3847   92.2263    4.7170 O.co2   1  UNL1       -0.5483
     21 C          65.3230   92.7600   12.6985 C.3     1  UNL1        0.1334
     22 N          67.8784   92.2929   12.6575 N.3     1  UNL1       -0.3172
     23 C          66.6763   92.9915   12.0945 C.3     1  UNL1        0.0968
     24 H          67.5939   91.7045   13.4406 H       1  UNL1        0.1192
     25 H          68.5540   92.9855   12.9804 H       1  UNL1        0.1192
     26 C          66.8277   93.9217   10.9275 C.ar    1  UNL1       -0.0063
     27 C          66.4050   95.3555   11.0515 C.ar    1  UNL1       -0.0029
     28 C          66.5563   96.2857    9.8845 C.ar    1  UNL1       -0.0003
     29 C          67.1303   95.7820    8.5935 C.ar    1  UNL1       -0.0000
     30 C          67.5530   94.3482    8.4694 C.ar    1  UNL1       -0.0003
     31 C          67.4016   93.4180    9.6364 C.ar    1  UNL1       -0.0029
     32 C          64.9911   88.0652   14.9007 C.3     1  UNL1        0.1394
     33 C          63.9750   87.1567   15.5267 C.ar    1  UNL1        0.0319
     34 C          63.9682   85.6947   15.1911 C.ar    1  UNL1        0.1379
     35 F          64.9777   85.1413   14.2294 F       1  UNL1       -0.2044
     36 C          62.9521   84.7862   15.8171 C.ar    1  UNL1        0.0294
     37 C          61.9427   85.3395   16.7788 C.ar    1  UNL1        0.0022
     38 C          61.9494   86.8015   17.1145 C.ar    1  UNL1        0.0037
     39 C          62.9656   87.7101   16.4884 C.ar    1  UNL1        0.0714
     40 C          62.9723   89.1720   16.8241 C.3     1  UNL1        0.4184
     41 F          62.9790   90.6339   17.1597 F       1  UNL1       -0.1659
     42 F          63.5011   88.8556   18.1916 F       1  UNL1       -0.1659
     43 F          62.4435   89.4884   15.4566 F       1  UNL1       -0.1659
@<TRIPOS>UNITY_ATOM_ATTR
19 1
charge -1
@<TRIPOS>BOND
     1    23    22    1
     2    23    21    1
     3    21     1    1
     4     1     2   ar
     5     2     3    2
     6     2     4   ar
     7     4     9    1
     8     9    10   ar
     9    10    11   ar
    10    11    12   ar
    11    12    15    1
    12    15    16    1
    13    16    17    1
    14    17    18    1
    15    18    19   ar
    16    18    20   ar
    17    12    13   ar
    18    13    14   ar
    19     4     5   ar
    20     5     6   ar
    21     6    32    1
    22    32    33    1
    23    33    34   ar
    24    34    35    1
    25    34    36   ar
    26    36    37   ar
    27    37    38   ar
    28    38    39   ar
    29    39    40    1
    30    40    41    1
    31    40    42    1
    32    40    43    1
    33     6     7   ar
    34     7     8    2
    35    23    26    1
    36    26    27   ar
    37    27    28   ar
    38    28    29   ar
    39    29    30   ar
    40    30    31   ar
    41     7     1   ar
    42    31    26   ar
    43    14     9   ar
    44    39    33   ar
    45    22    24    1
    46    22    25    1
@<TRIPOS>MOLECULE
*****
 43 46 0 0 0
SMALL
GASTEIGER

@<TRIPOS>ATOM
      1 N          64.2103   88.1563   13.8297 N.ar    1  UNL1       -0.2470
      2 C          63.2996   87.9547   12.6550 C.ar    1  UNL1        0.2657
      3 O          62.8623   86.5715   12.2738 O.2     1  UNL1       -0.2668
      4 C          62.8262   89.1364   11.8616 C.ar    1  UNL1        0.0736
      5 C          63.2636   90.5196   12.2428 C.ar    1  UNL1        0.0847
      6 N          64.1743   90.7212   13.4175 N.ar    1  UNL1       -0.2755
      7 C          64.6477   89.5396   14.2109 C.ar    1  UNL1        0.3341
      8 O          65.5584   89.7412   15.3857 O.2     1  UNL1       -0.2462
      9 C          61.9155   88.9348   10.6868 C.ar    1  UNL1        0.0060
     10 C          61.9776   87.6593    9.8999 C.ar    1  UNL1       -0.0001
     11 C          61.0669   87.4577    8.7252 C.ar    1  UNL1       -0.0034
     12 C          60.0940   88.5316    8.3374 C.ar    1  UNL1       -0.0113
     13 C          60.0319   89.8071    9.1244 C.ar    1  UNL1       -0.0034
     14 C          60.9427   90.0086   10.2991 C.ar    1  UNL1       -0.0001
     15 C          59.1834   88.3300    7.1627 C.3     1  UNL1        0.0841
     16 S          58.4594   89.5001    6.5654 S.3     1  UNL1       -0.1294
     17 C          59.1708   90.4162    5.6143 C.3     1  UNL1        0.0993
     18 C          58.4552   91.6020    5.0383 C.2     1  UNL1        0.0612
     19 O          59.2361   92.7107    4.3975 O.co2   1  UNL1       -0.5483
     20 O          56.9585   91.6790    5.1032 O.co2   1  UNL1       -0.5483
     21 C          64.6838   86.9747   14.6232 C.3     1  UNL1        0.1334
     22 N          62.8751   86.4964   16.4259 N.3     1  UNL1       -0.3172
     23 C          63.6879   86.0439   15.2492 C.3     1  UNL1        0.0968
     24 H          63.1273   87.4554   16.6648 H       1  UNL1        0.1192
     25 H          63.0619   85.8872   17.2225 H       1  UNL1        0.1192
     26 C          63.5047   84.6607   14.6984 C.ar    1  UNL1       -0.0063
     27 C          64.5193   84.0896   13.7527 C.ar    1  UNL1       -0.0029
     28 C          64.3361   82.7064   13.2021 C.ar    1  UNL1       -0.0003
     29 C          63.1383   81.8945   13.5970 C.ar    1  UNL1       -0.0000
     30 C          62.1237   82.4656   14.5427 C.ar    1  UNL1       -0.0003
     31 C          62.3069   83.8488   15.0934 C.ar    1  UNL1       -0.0029
     32 C          64.6116   92.1045   13.7988 C.3     1  UNL1        0.1394
     33 C          65.9761   92.3259   14.3810 C.ar    1  UNL1        0.0319
     34 C          66.1444   92.4678   15.8648 C.ar    1  UNL1        0.1379
     35 F          64.9482   92.3882   16.7663 F       1  UNL1       -0.2044
     36 C          67.5089   92.6892   16.4471 C.ar    1  UNL1        0.0294
     37 C          68.7051   92.7688   15.5456 C.ar    1  UNL1        0.0022
     38 C          68.5369   92.6270   14.0618 C.ar    1  UNL1        0.0037
     39 C          67.1723   92.4055   13.4795 C.ar    1  UNL1        0.0714
     40 C          67.0040   92.2637   11.9958 C.3     1  UNL1        0.4184
     41 F          66.8358   92.1219   10.5120 F       1  UNL1       -0.1659
     42 F          68.0962   91.2359   11.9702 F       1  UNL1       -0.1659
     43 F          65.9119   93.2916   12.0214 F       1  UNL1       -0.1659
@<TRIPOS>UNITY_ATOM_ATTR
19 1
charge -1
@<TRIPOS>BOND
     1    23    22    1
     2    23    21    1
     3    21     1    1
     4     1     2   ar
     5     2     3    2
     6     2     4   ar
     7     4     9    1
     8     9    10   ar
     9    10    11   ar
    10    11    12   ar
    11    12    15    1
    12    15    16    1
    13    16    17    1
    14    17    18    1
    15    18    19   ar
    16    18    20   ar
    17    12    13   ar
    18    13    14   ar
    19     4     5   ar
    20     5     6   ar
    21     6    32    1
    22    32    33    1
    23    33    34   ar
    24    34    35    1
    25    34    36   ar
    26    36    37   ar
    27    37    38   ar
    28    38    39   ar
    29    39    40    1
    30    40    41    1
    31    40    42    1
    32    40    43    1
    33     6     7   ar
    34     7     8    2
    35    23    26    1
    36    26    27   ar
    37    27    28   ar
    38    28    29   ar
    39    29    30   ar
    40    30    31   ar
    41     7     1   ar
    42    31    26   ar
    43    14     9   ar
    44    39    33   ar
    45    22    24    1
    46    22    25    1
