@<TRIPOS>MOLECULE
*****
 28 30 0 0 0
SMALL
GASTEIGER

@<TRIPOS>ATOM
      1 N          62.7891   89.4555   10.1599 N.am    1  UNL1       -0.2996
      2 C          62.9855   90.1300   11.4854 C.2     1  UNL1        0.2651
      3 O          62.1983   89.6796   12.6800 O.2     1  UNL1       -0.2684
      4 H          63.3058   89.7511    9.3758 H       1  UNL1        0.1498
      5 C          63.9693   91.2548   11.6159 C.ar    1  UNL1        0.1517
      6 N          64.3990   92.1822   10.5181 N.ar    1  UNL1       -0.2260
      7 C          65.3913   93.1502   11.0910 C.ar    1  UNL1        0.1239
      8 N          65.5749   92.8211   12.5429 N.ar    1  UNL1       -0.2921
      9 C          66.4287   93.4368   13.6114 C.ar    1  UNL1        0.0811
     10 C          66.4037   92.8811   15.0044 C.ar    1  UNL1        0.0191
     11 C          65.5248   91.7096   15.3289 C.ar    1  UNL1        0.0031
     12 C          64.6709   91.0939   14.2603 C.ar    1  UNL1        0.0193
     13 C          64.6960   91.6497   12.8673 C.ar    1  UNL1        0.0872
     14 C          66.0793   94.2537   10.3433 C.3     1  UNL1        0.0573
     15 C          65.6038   95.6688   10.4896 C.3     1  UNL1        0.0079
     16 C          67.2427   93.9421    9.4493 C.3     1  UNL1        0.0079
     17 C          61.8053   88.3307   10.0294 C.3     1  UNL1        0.0898
     18 N          63.1714   84.0750   10.5521 N.3     1  UNL1       -0.2726
     19 C          63.1324   84.6874    9.1834 C.3     1  UNL1        0.0721
     20 C          62.6770   86.1060    9.0091 C.3     1  UNL1        0.0191
     21 C          62.2607   86.9122   10.2037 C.3     1  UNL1        0.0224
     22 C          62.2997   86.2997   11.5724 C.3     1  UNL1        0.0191
     23 C          62.7551   84.8812   11.7466 C.3     1  UNL1        0.0721
     24 C          63.6268   82.6565   10.7264 C.3     1  UNL1        0.0747
     25 C          62.9438   81.7666   11.7223 C.3     1  UNL1        0.0494
     26 C          63.6257   81.4244   13.0138 C.3     1  UNL1        0.1437
     27 C          61.3165   81.0800   14.1535 C.3     1  UNL1        0.1741
     28 O          62.8135   80.9992   14.2011 O.3     1  UNL1       -0.3511
@<TRIPOS>BOND
     1    27    28    1
     2    28    26    1
     3    26    25    1
     4    25    24    1
     5    24    18    1
     6    18    19    1
     7    19    20    1
     8    20    21    1
     9    21    17    1
    10    17     1    1
    11     1     2   am
    12     2     3    2
    13     2     5    1
    14     5     6   ar
    15     6     7   ar
    16     7    14    1
    17    14    15    1
    18    14    16    1
    19     7     8   ar
    20     8     9   ar
    21     9    10   ar
    22    10    11   ar
    23    11    12   ar
    24    12    13   ar
    25    21    22    1
    26    22    23    1
    27    23    18    1
    28    13     5   ar
    29    13     8   ar
    30     1     4    1
@<TRIPOS>MOLECULE
*****
 28 30 0 0 0
SMALL
GASTEIGER

@<TRIPOS>ATOM
      1 N          62.6152   88.1299   12.0555 N.am    1  UNL1       -0.2996
      2 C          62.4175   86.8993   11.2208 C.2     1  UNL1        0.2651
      3 O          61.9220   87.0214    9.8104 O.2     1  UNL1       -0.2684
      4 H          62.9404   88.0498   12.9812 H       1  UNL1        0.1498
      5 C          62.7153   85.5466   11.7967 C.ar    1  UNL1        0.1517
      6 N          62.4177   84.2272   11.1481 N.ar    1  UNL1       -0.2260
      7 C          62.8815   83.1411   12.0729 C.ar    1  UNL1        0.1239
      8 N          63.4656   83.7892   13.2931 N.ar    1  UNL1       -0.2921
      9 C          64.0777   83.2177   14.5375 C.ar    1  UNL1        0.0811
     10 C          64.5872   84.1329   15.6112 C.ar    1  UNL1        0.0191
     11 C          64.4844   85.6196   15.4405 C.ar    1  UNL1        0.0031
     12 C          63.8723   86.1911   14.1961 C.ar    1  UNL1        0.0193
     13 C          63.3629   85.2759   13.1224 C.ar    1  UNL1        0.0872
     14 C          62.7791   81.6658   11.8217 C.3     1  UNL1        0.0573
     15 C          63.1545   81.1053   10.4819 C.3     1  UNL1        0.0079
     16 C          62.3013   80.7511   12.9101 C.3     1  UNL1        0.0079
     17 C          62.3174   89.4826   11.4796 C.3     1  UNL1        0.0898
     18 N          65.3627   92.7809   11.7917 N.3     1  UNL1       -0.2726
     19 C          64.6592   92.5302   10.4908 C.3     1  UNL1        0.0721
     20 C          63.6441   91.4307   10.3868 C.3     1  UNL1        0.0191
     21 C          63.3325   90.5820   11.5837 C.3     1  UNL1        0.0224
     22 C          64.0359   90.8326   12.8846 C.3     1  UNL1        0.0191
     23 C          65.0510   91.9321   12.9886 C.3     1  UNL1        0.0721
     24 C          66.3778   93.8803   11.8958 C.3     1  UNL1        0.0747
     25 C          66.4531   94.9347   10.8316 C.3     1  UNL1        0.0494
     26 C          67.3094   94.7169    9.6194 C.3     1  UNL1        0.1437
     27 C          68.7627   92.5878    9.2958 C.3     1  UNL1        0.1741
     28 O          68.6268   94.0113    9.7486 O.3     1  UNL1       -0.3511
@<TRIPOS>BOND
     1    27    28    1
     2    28    26    1
     3    26    25    1
     4    25    24    1
     5    24    18    1
     6    18    19    1
     7    19    20    1
     8    20    21    1
     9    21    17    1
    10    17     1    1
    11     1     2   am
    12     2     3    2
    13     2     5    1
    14     5     6   ar
    15     6     7   ar
    16     7    14    1
    17    14    15    1
    18    14    16    1
    19     7     8   ar
    20     8     9   ar
    21     9    10   ar
    22    10    11   ar
    23    11    12   ar
    24    12    13   ar
    25    21    22    1
    26    22    23    1
    27    23    18    1
    28    13     5   ar
    29    13     8   ar
    30     1     4    1
@<TRIPOS>MOLECULE
*****
 28 30 0 0 0
SMALL
GASTEIGER

@<TRIPOS>ATOM
      1 N          64.2645   87.6997   15.0535 N.am    1  UNL1       -0.2996
      2 C          63.6535   89.0676   15.1286 C.2     1  UNL1        0.2651
      3 O          62.5327   89.3366   16.0883 O.2     1  UNL1       -0.2684
      4 H          65.0002   87.5230   14.4235 H       1  UNL1        0.1498
      5 C          64.1635   90.1664   14.2439 C.ar    1  UNL1        0.1517
      6 N          65.1716   91.2095   14.6257 N.ar    1  UNL1       -0.2260
      7 C          65.3861   92.1027   13.4399 C.ar    1  UNL1        0.1239
      8 N          64.5105   91.6117   12.3253 N.ar    1  UNL1       -0.2921
      9 C          64.3037   92.0997   10.9221 C.ar    1  UNL1        0.0811
     10 C          63.3413   91.3910   10.0158 C.ar    1  UNL1        0.0191
     11 C          62.5857   90.1942   10.5127 C.ar    1  UNL1        0.0031
     12 C          62.7925   89.7062   11.9159 C.ar    1  UNL1        0.0193
     13 C          63.7549   90.4150   12.8222 C.ar    1  UNL1        0.0872
     14 C          66.3133   93.2803   13.3793 C.3     1  UNL1        0.0573
     15 C          67.2672   93.5426   14.5069 C.3     1  UNL1        0.0079
     16 C          66.2867   94.1955   12.1913 C.3     1  UNL1        0.0079
     17 C          63.7545   86.6009   15.9381 C.3     1  UNL1        0.0898
     18 N          63.4267   82.4032   14.3499 N.3     1  UNL1       -0.2726
     19 C          64.6617   83.2116   14.0833 C.3     1  UNL1        0.0721
     20 C          64.7710   84.6109   14.6128 C.3     1  UNL1        0.0191
     21 C          63.6452   85.2017   15.4087 C.3     1  UNL1        0.0224
     22 C          62.4101   84.3933   15.6753 C.3     1  UNL1        0.0191
     23 C          62.3009   82.9941   15.1459 C.3     1  UNL1        0.0721
     24 C          63.3173   81.0040   13.8205 C.3     1  UNL1        0.0747
     25 C          62.6795   80.7548   12.4859 C.3     1  UNL1        0.0494
     26 C          63.2091   81.4410   11.2617 C.3     1  UNL1        0.1437
     27 C          63.8240   83.6514   10.0427 C.3     1  UNL1        0.1741
     28 O          63.0602   82.9259   11.1105 O.3     1  UNL1       -0.3511
@<TRIPOS>BOND
     1    27    28    1
     2    28    26    1
     3    26    25    1
     4    25    24    1
     5    24    18    1
     6    18    19    1
     7    19    20    1
     8    20    21    1
     9    21    17    1
    10    17     1    1
    11     1     2   am
    12     2     3    2
    13     2     5    1
    14     5     6   ar
    15     6     7   ar
    16     7    14    1
    17    14    15    1
    18    14    16    1
    19     7     8   ar
    20     8     9   ar
    21     9    10   ar
    22    10    11   ar
    23    11    12   ar
    24    12    13   ar
    25    21    22    1
    26    22    23    1
    27    23    18    1
    28    13     5   ar
    29    13     8   ar
    30     1     4    1
@<TRIPOS>MOLECULE
*****
 28 30 0 0 0
SMALL
GASTEIGER

@<TRIPOS>ATOM
      1 N          65.1506   89.5858   14.1802 N.am    1  UNL1       -0.2996
      2 C          63.7424   89.1466   13.9075 C.2     1  UNL1        0.2651
      3 O          62.5985   90.0715   14.2002 O.2     1  UNL1       -0.2684
      4 H          65.9015   88.9788   13.9881 H       1  UNL1        0.1498
      5 C          63.4784   87.7825   13.3422 C.ar    1  UNL1        0.1517
      6 N          63.7728   86.4760   14.0178 N.ar    1  UNL1       -0.2260
      7 C          63.3500   85.3715   13.0952 C.ar    1  UNL1        0.1239
      8 N          62.7943   85.9954   11.8494 N.ar    1  UNL1       -0.2921
      9 C          62.2262   85.3991   10.5957 C.ar    1  UNL1        0.0811
     10 C          61.7376   86.2929    9.4947 C.ar    1  UNL1        0.0191
     11 C          61.8170   87.7830    9.6474 C.ar    1  UNL1        0.0031
     12 C          62.3850   88.3793   10.9010 C.ar    1  UNL1        0.0193
     13 C          62.8737   87.4855   12.0020 C.ar    1  UNL1        0.0872
     14 C          63.4630   83.9013   13.3700 C.3     1  UNL1        0.0573
     15 C          62.7038   83.2910   14.5109 C.3     1  UNL1        0.0079
     16 C          64.3350   83.0412   12.5042 C.3     1  UNL1        0.0079
     17 C          65.4146   90.9499   14.7455 C.3     1  UNL1        0.0898
     18 N          66.2031   94.4153   11.9851 N.3     1  UNL1       -0.2726
     19 C          66.6510   94.4787   13.4153 C.3     1  UNL1        0.0721
     20 C          66.3881   93.3235   14.3354 C.3     1  UNL1        0.0191
     21 C          65.6774   92.1050   13.8253 C.3     1  UNL1        0.0224
     22 C          65.2296   92.0416   12.3952 C.3     1  UNL1        0.0191
     23 C          65.4924   93.1968   11.4751 C.3     1  UNL1        0.0721
     24 C          66.4659   95.5704   11.0650 C.3     1  UNL1        0.0747
     25 C          66.5231   95.3502    9.5824 C.3     1  UNL1        0.0494
     26 C          67.7928   94.8709    8.9437 C.3     1  UNL1        0.1437
     27 C          68.6562   92.4430    9.2751 C.3     1  UNL1        0.1741
     28 O          68.6716   93.8916    9.6640 O.3     1  UNL1       -0.3511
@<TRIPOS>BOND
     1    27    28    1
     2    28    26    1
     3    26    25    1
     4    25    24    1
     5    24    18    1
     6    18    19    1
     7    19    20    1
     8    20    21    1
     9    21    17    1
    10    17     1    1
    11     1     2   am
    12     2     3    2
    13     2     5    1
    14     5     6   ar
    15     6     7   ar
    16     7    14    1
    17    14    15    1
    18    14    16    1
    19     7     8   ar
    20     8     9   ar
    21     9    10   ar
    22    10    11   ar
    23    11    12   ar
    24    12    13   ar
    25    21    22    1
    26    22    23    1
    27    23    18    1
    28    13     5   ar
    29    13     8   ar
    30     1     4    1
@<TRIPOS>MOLECULE
*****
 28 30 0 0 0
SMALL
GASTEIGER

@<TRIPOS>ATOM
      1 N          64.0514   88.9965   12.9374 N.am    1  UNL1       -0.2996
      2 C          62.7455   88.7869   12.2297 C.2     1  UNL1        0.2651
      3 O          61.6447   89.7957   12.3726 O.2     1  UNL1       -0.2684
      4 H          64.7739   88.3344   12.8437 H       1  UNL1        0.1498
      5 C          62.5405   87.5685   11.3791 C.ar    1  UNL1        0.1517
      6 N          62.0570   87.5557    9.9592 N.ar    1  UNL1       -0.2260
      7 C          62.0008   86.1283    9.5016 C.ar    1  UNL1        0.1239
      8 N          62.4495   85.2589   10.6387 N.ar    1  UNL1       -0.2921
      9 C          62.5975   83.7719   10.7674 C.ar    1  UNL1        0.0811
     10 C          63.0790   83.1749   12.0565 C.ar    1  UNL1        0.0191
     11 C          63.4126   84.0650   13.2168 C.ar    1  UNL1        0.0031
     12 C          63.2647   85.5521   13.0881 C.ar    1  UNL1        0.0193
     13 C          62.7831   86.1491   11.7990 C.ar    1  UNL1        0.0872
     14 C          61.5712   85.6535    8.1451 C.3     1  UNL1        0.0573
     15 C          60.1685   85.8996    7.6738 C.3     1  UNL1        0.0079
     16 C          62.5441   84.9327    7.2599 C.3     1  UNL1        0.0079
     17 C          64.2563   90.2149   13.7881 C.3     1  UNL1        0.0898
     18 N          65.9850   93.9559   11.9806 N.3     1  UNL1       -0.2726
     19 C          66.2992   93.5954   13.4023 C.3     1  UNL1        0.0721
     20 C          65.7230   92.3483   14.0048 C.3     1  UNL1        0.0191
     21 C          64.8325   91.4618   13.1856 C.3     1  UNL1        0.0224
     22 C          64.5183   91.8223   11.7638 C.3     1  UNL1        0.0191
     23 C          65.0945   93.0693   11.1614 C.3     1  UNL1        0.0721
     24 C          66.5611   95.2029   11.3781 C.3     1  UNL1        0.0747
     25 C          66.7019   95.3206    9.8894 C.3     1  UNL1        0.0494
     26 C          67.9258   94.7855    9.2071 C.3     1  UNL1        0.1437
     27 C          68.7731   92.3373    9.0106 C.3     1  UNL1        0.1741
     28 O          67.8836   93.4464    8.5324 O.3     1  UNL1       -0.3511
@<TRIPOS>BOND
     1    27    28    1
     2    28    26    1
     3    26    25    1
     4    25    24    1
     5    24    18    1
     6    18    19    1
     7    19    20    1
     8    20    21    1
     9    21    17    1
    10    17     1    1
    11     1     2   am
    12     2     3    2
    13     2     5    1
    14     5     6   ar
    15     6     7   ar
    16     7    14    1
    17    14    15    1
    18    14    16    1
    19     7     8   ar
    20     8     9   ar
    21     9    10   ar
    22    10    11   ar
    23    11    12   ar
    24    12    13   ar
    25    21    22    1
    26    22    23    1
    27    23    18    1
    28    13     5   ar
    29    13     8   ar
    30     1     4    1
@<TRIPOS>MOLECULE
*****
 28 30 0 0 0
SMALL
GASTEIGER

@<TRIPOS>ATOM
      1 N          62.3117   87.6259   11.8636 N.am    1  UNL1       -0.2996
      2 C          62.4001   86.4079   10.9925 C.2     1  UNL1        0.2651
      3 O          62.1993   86.5292    9.5110 O.2     1  UNL1       -0.2684
      4 H          62.4435   87.5463   12.8360 H       1  UNL1        0.1498
      5 C          62.6892   85.0686   11.6030 C.ar    1  UNL1        0.1517
      6 N          62.4465   83.7354   10.9597 N.ar    1  UNL1       -0.2260
      7 C          62.8792   82.6703   11.9231 C.ar    1  UNL1        0.1239
      8 N          63.3893   83.3451   13.1618 N.ar    1  UNL1       -0.2921
      9 C          63.9455   82.8013   14.4443 C.ar    1  UNL1        0.0811
     10 C          64.3844   83.7399   15.5290 C.ar    1  UNL1        0.0191
     11 C          64.2670   85.2221   15.3311 C.ar    1  UNL1        0.0031
     12 C          63.7108   85.7659   14.0486 C.ar    1  UNL1        0.0193
     13 C          63.2719   84.8273   12.9640 C.ar    1  UNL1        0.0872
     14 C          62.8133   81.1901   11.6890 C.3     1  UNL1        0.0573
     15 C          62.4581   80.2674   12.8171 C.3     1  UNL1        0.0079
     16 C          63.1025   80.6326   10.3269 C.3     1  UNL1        0.0079
     17 C          62.0225   88.9652   11.2531 C.3     1  UNL1        0.0898
     18 N          64.9036   92.3726   11.8355 N.3     1  UNL1       -0.2726
     19 C          64.2350   92.1744   10.5074 C.3     1  UNL1        0.0721
     20 C          63.2746   91.0385   10.3133 C.3     1  UNL1        0.0191
     21 C          62.9829   90.1009   11.4473 C.3     1  UNL1        0.0224
     22 C          63.6515   90.2992   12.7753 C.3     1  UNL1        0.0191
     23 C          64.6118   91.4350   12.9694 C.3     1  UNL1        0.0721
     24 C          65.8639   93.5084   12.0297 C.3     1  UNL1        0.0747
     25 C          66.9047   93.4345   13.1073 C.3     1  UNL1        0.0494
     26 C          66.5033   93.5574   14.5474 C.3     1  UNL1        0.1437
     27 C          68.8534   92.7897   15.3458 C.3     1  UNL1        0.1741
     28 O          67.5408   93.4592   15.6263 O.3     1  UNL1       -0.3511
@<TRIPOS>BOND
     1    27    28    1
     2    28    26    1
     3    26    25    1
     4    25    24    1
     5    24    18    1
     6    18    19    1
     7    19    20    1
     8    20    21    1
     9    21    17    1
    10    17     1    1
    11     1     2   am
    12     2     3    2
    13     2     5    1
    14     5     6   ar
    15     6     7   ar
    16     7    14    1
    17    14    15    1
    18    14    16    1
    19     7     8   ar
    20     8     9   ar
    21     9    10   ar
    22    10    11   ar
    23    11    12   ar
    24    12    13   ar
    25    21    22    1
    26    22    23    1
    27    23    18    1
    28    13     5   ar
    29    13     8   ar
    30     1     4    1
@<TRIPOS>MOLECULE
*****
 28 30 0 0 0
SMALL
GASTEIGER

@<TRIPOS>ATOM
      1 N          62.2906   88.4124   12.0348 N.am    1  UNL1       -0.2996
      2 C          62.2855   87.2004   11.1509 C.2     1  UNL1        0.2651
      3 O          62.0792   87.3509    9.6729 O.2     1  UNL1       -0.2684
      4 H          62.4260   88.3136   13.0049 H       1  UNL1        0.1498
      5 C          62.4868   85.8379   11.7452 C.ar    1  UNL1        0.1517
      6 N          62.1711   85.4357   13.1554 N.ar    1  UNL1       -0.2260
      7 C          62.5283   83.9877   13.3154 C.ar    1  UNL1        0.1239
      8 N          63.0647   83.4949   12.0041 N.ar    1  UNL1       -0.2921
      9 C          63.5731   82.1527   11.5683 C.ar    1  UNL1        0.0811
     10 C          64.0560   81.9541   10.1621 C.ar    1  UNL1        0.0191
     11 C          64.0303   83.0976    9.1917 C.ar    1  UNL1        0.0031
     12 C          63.5218   84.4398    9.6275 C.ar    1  UNL1        0.0193
     13 C          63.0390   84.6384   11.0337 C.ar    1  UNL1        0.0872
     14 C          62.3758   83.1750   14.5669 C.3     1  UNL1        0.0573
     15 C          62.7699   83.7574   15.8920 C.3     1  UNL1        0.0079
     16 C          61.8294   81.7801   14.4935 C.3     1  UNL1        0.0079
     17 C          62.0894   89.7749   11.4405 C.3     1  UNL1        0.0898
     18 N          65.4045   92.8134   11.6053 N.3     1  UNL1       -0.2726
     19 C          64.6446   92.6010   10.3296 C.3     1  UNL1        0.0721
     20 C          63.5395   91.5881   10.2747 C.3     1  UNL1        0.0191
     21 C          63.1944   90.7877   11.4955 C.3     1  UNL1        0.0224
     22 C          63.9543   91.0001   12.7711 C.3     1  UNL1        0.0191
     23 C          65.0593   92.0130   12.8260 C.3     1  UNL1        0.0721
     24 C          66.5095   93.8263   11.6603 C.3     1  UNL1        0.0747
     25 C          66.5933   94.9021   10.6184 C.3     1  UNL1        0.0494
     26 C          67.7751   94.9630    9.6966 C.3     1  UNL1        0.1437
     27 C          68.3106   92.4962    9.0816 C.3     1  UNL1        0.1741
     28 O          68.7434   93.8187    9.6417 O.3     1  UNL1       -0.3511
@<TRIPOS>BOND
     1    27    28    1
     2    28    26    1
     3    26    25    1
     4    25    24    1
     5    24    18    1
     6    18    19    1
     7    19    20    1
     8    20    21    1
     9    21    17    1
    10    17     1    1
    11     1     2   am
    12     2     3    2
    13     2     5    1
    14     5     6   ar
    15     6     7   ar
    16     7    14    1
    17    14    15    1
    18    14    16    1
    19     7     8   ar
    20     8     9   ar
    21     9    10   ar
    22    10    11   ar
    23    11    12   ar
    24    12    13   ar
    25    21    22    1
    26    22    23    1
    27    23    18    1
    28    13     5   ar
    29    13     8   ar
    30     1     4    1
@<TRIPOS>MOLECULE
*****
 28 30 0 0 0
SMALL
GASTEIGER

@<TRIPOS>ATOM
      1 N          64.0292   88.3009   13.8133 N.am    1  UNL1       -0.2996
      2 C          63.7711   86.9209   14.3416 C.2     1  UNL1        0.2651
      3 O          63.8201   86.6618   15.8181 O.2     1  UNL1       -0.2684
      4 H          63.9970   88.4710   12.8441 H       1  UNL1        0.1498
      5 C          63.4640   85.8000   13.3932 C.ar    1  UNL1        0.1517
      6 N          63.7056   84.3411   13.6446 N.ar    1  UNL1       -0.2260
      7 C          63.2523   83.5808   12.4337 C.ar    1  UNL1        0.1239
      8 N          62.7305   84.5698   11.4338 N.ar    1  UNL1       -0.2921
      9 C          62.1533   84.3987   10.0600 C.ar    1  UNL1        0.0811
     10 C          61.7068   85.5991    9.2792 C.ar    1  UNL1        0.0191
     11 C          61.8376   86.9706    9.8722 C.ar    1  UNL1        0.0031
     12 C          62.4149   87.1418   11.2460 C.ar    1  UNL1        0.0193
     13 C          62.8614   85.9414   12.0268 C.ar    1  UNL1        0.0872
     14 C          63.3105   82.0928   12.2540 C.3     1  UNL1        0.0573
     15 C          63.5270   81.2019   13.4413 C.3     1  UNL1        0.0079
     16 C          63.1522   81.4955   10.8873 C.3     1  UNL1        0.0079
     17 C          64.3363   89.4218   14.7617 C.3     1  UNL1        0.0898
     18 N          65.9638   93.3133   13.1941 N.3     1  UNL1       -0.2726
     19 C          66.2341   92.9040   14.6116 C.3     1  UNL1        0.0721
     20 C          65.6916   91.6067   15.1342 C.3     1  UNL1        0.0191
     21 C          64.8787   90.7189   14.2391 C.3     1  UNL1        0.0224
     22 C          64.6084   91.1283   12.8216 C.3     1  UNL1        0.0191
     23 C          65.1509   92.4254   12.2992 C.3     1  UNL1        0.0721
     24 C          66.5063   94.6105   12.6716 C.3     1  UNL1        0.0747
     25 C          65.8750   95.2599   11.4758 C.3     1  UNL1        0.0494
     26 C          66.6313   95.3476   10.1834 C.3     1  UNL1        0.1437
     27 C          67.2861   96.8194    8.1450 C.3     1  UNL1        0.1741
     28 O          66.2823   96.4071    9.1805 O.3     1  UNL1       -0.3511
@<TRIPOS>BOND
     1    27    28    1
     2    28    26    1
     3    26    25    1
     4    25    24    1
     5    24    18    1
     6    18    19    1
     7    19    20    1
     8    20    21    1
     9    21    17    1
    10    17     1    1
    11     1     2   am
    12     2     3    2
    13     2     5    1
    14     5     6   ar
    15     6     7   ar
    16     7    14    1
    17    14    15    1
    18    14    16    1
    19     7     8   ar
    20     8     9   ar
    21     9    10   ar
    22    10    11   ar
    23    11    12   ar
    24    12    13   ar
    25    21    22    1
    26    22    23    1
    27    23    18    1
    28    13     5   ar
    29    13     8   ar
    30     1     4    1
@<TRIPOS>MOLECULE
*****
 28 30 0 0 0
SMALL
GASTEIGER

@<TRIPOS>ATOM
      1 N          62.0831   88.2054   12.0021 N.am    1  UNL1       -0.2996
      2 C          62.3499   87.0164   11.1272 C.2     1  UNL1        0.2651
      3 O          62.4705   87.1901    9.6423 O.2     1  UNL1       -0.2684
      4 H          62.0039   88.0914   12.9768 H       1  UNL1        0.1498
      5 C          62.4961   85.6540   11.7374 C.ar    1  UNL1        0.1517
      6 N          62.1235   85.2710   13.1390 N.ar    1  UNL1       -0.2260
      7 C          62.4377   83.8156   13.3209 C.ar    1  UNL1        0.1239
      8 N          63.0045   83.2991   12.0317 N.ar    1  UNL1       -0.2921
      9 C          63.4923   81.9410   11.6225 C.ar    1  UNL1        0.0811
     10 C          64.0162   81.7190   10.2346 C.ar    1  UNL1        0.0191
     11 C          64.0523   82.8552    9.2560 C.ar    1  UNL1        0.0031
     12 C          63.5645   84.2133    9.6652 C.ar    1  UNL1        0.0193
     13 C          63.0405   84.4353   11.0530 C.ar    1  UNL1        0.0872
     14 C          62.2229   83.0169   14.5723 C.3     1  UNL1        0.0573
     15 C          61.6574   81.6300   14.4890 C.3     1  UNL1        0.0079
     16 C          62.5735   83.6050   15.9068 C.3     1  UNL1        0.0079
     17 C          61.9369   89.5678   11.3919 C.3     1  UNL1        0.0898
     18 N          65.2437   92.5900   11.8175 N.3     1  UNL1       -0.2726
     19 C          64.8047   91.7864   13.0055 C.3     1  UNL1        0.0721
     20 C          63.7023   90.7790   12.8636 C.3     1  UNL1        0.0191
     21 C          63.0391   90.5752   11.5337 C.3     1  UNL1        0.0224
     22 C          63.4782   91.3789   10.3457 C.3     1  UNL1        0.0191
     23 C          64.5804   92.3862   10.4876 C.3     1  UNL1        0.0721
     24 C          66.3460   93.5974   11.9593 C.3     1  UNL1        0.0747
     25 C          66.4950   94.3713   13.2356 C.3     1  UNL1        0.0494
     26 C          66.8498   93.6594   14.5073 C.3     1  UNL1        0.1437
     27 C          68.7594   92.4167   15.7560 C.3     1  UNL1        0.1741
     28 O          68.2799   93.5905   14.9546 O.3     1  UNL1       -0.3511
@<TRIPOS>BOND
     1    27    28    1
     2    28    26    1
     3    26    25    1
     4    25    24    1
     5    24    18    1
     6    18    19    1
     7    19    20    1
     8    20    21    1
     9    21    17    1
    10    17     1    1
    11     1     2   am
    12     2     3    2
    13     2     5    1
    14     5     6   ar
    15     6     7   ar
    16     7    14    1
    17    14    15    1
    18    14    16    1
    19     7     8   ar
    20     8     9   ar
    21     9    10   ar
    22    10    11   ar
    23    11    12   ar
    24    12    13   ar
    25    21    22    1
    26    22    23    1
    27    23    18    1
    28    13     5   ar
    29    13     8   ar
    30     1     4    1
