@<TRIPOS>MOLECULE
*****
 40 46 0 0 0
SMALL
GASTEIGER

@<TRIPOS>ATOM
      1 C          59.3297   90.4119    5.9327 C.2     1  UNL1        0.1040
      2 N          57.8535   90.6516    5.8160 N.2     1  UNL1       -0.1483
      3 N          57.6240   91.5738    4.6555 N.2     1  UNL1       -0.1520
      4 C          58.9583   91.9040    4.0549 C.2     1  UNL1        0.0860
      5 C          59.3494   92.7658    2.8912 C.3     1  UNL1        0.0697
      6 C          60.7949   92.9095    2.5168 C.2     1  UNL1       -0.0378
      7 C          61.8490   92.1914    3.3062 C.2     1  UNL1       -0.0080
      8 C          61.4578   91.3296    4.4699 C.2     1  UNL1        0.0022
      9 C          60.0124   91.1859    4.8442 C.2     1  UNL1        0.0350
     10 C          61.1861   93.7713    1.3531 C.3     1  UNL1        0.0315
     11 C          61.8622   94.9967    0.8135 C.3     1  UNL1        0.0179
     12 C          61.1877   94.0386   -0.1229 C.3     1  UNL1        0.0927
     13 C          60.4123   92.8127   -0.5050 C.2     1  UNL1        0.2293
     14 O          59.8894   91.7705    0.4385 O.2     1  UNL1       -0.2744
     15 N          60.2518   92.8120   -1.9964 N.am    1  UNL1       -0.2839
     16 C          60.9279   94.0374   -2.5360 C.ar    1  UNL1        0.0467
     17 C          61.0915   94.5609   -3.9321 C.ar    1  UNL1        0.0144
     18 C          61.8336   95.8425   -4.1703 C.ar    1  UNL1        0.0013
     19 C          62.4121   96.6006   -3.0124 C.ar    1  UNL1       -0.0002
     20 C          62.2484   96.0771   -1.6163 C.ar    1  UNL1       -0.0026
     21 C          61.5063   94.7955   -1.3781 C.ar    1  UNL1       -0.0008
     22 H          59.7846   92.1274   -2.5278 H       1  UNL1        0.1549
     23 C          60.1309   90.0273    8.3741 C.2     1  UNL1        0.0016
     24 C          60.0046   89.5495    6.9579 C.2     1  UNL1        0.0209
     25 C          62.1555   87.4402   11.4494 C.ar    1  UNL1        0.1384
     26 C          60.9141   86.9552   10.7612 C.ar    1  UNL1        0.0369
     27 C          60.2392   87.8175    9.7360 C.ar    1  UNL1        0.0031
     28 C          60.8057   89.1650    9.3991 C.ar    1  UNL1        0.0002
     29 C          62.0472   89.6500   10.0874 C.ar    1  UNL1        0.0031
     30 C          62.7220   88.7877   11.1125 C.ar    1  UNL1        0.0369
     31 O          62.8304   86.5779   12.4745 O.3     1  UNL1       -0.4791
     32 N          62.7746   82.0996   12.0364 N.3     1  UNL1       -0.2737
     33 C          62.4711   82.7271   13.3647 C.3     1  UNL1        0.0758
     34 C          62.4898   84.2199   13.5107 C.3     1  UNL1        0.0609
     35 C          62.8118   85.0851   12.3285 C.3     1  UNL1        0.1687
     36 C          63.1152   84.4577   11.0003 C.3     1  UNL1        0.0609
     37 C          63.0966   82.9649   10.8542 C.3     1  UNL1        0.0758
     38 C          62.9949   79.9815   10.5481 C.3     1  UNL1        0.0173
     39 C          62.7559   80.6069   11.8904 C.3     1  UNL1        0.0576
     40 C          62.4984   79.7395   13.0867 C.3     1  UNL1        0.0173
@<TRIPOS>BOND
     1    38    39    1
     2    39    40    1
     3    39    32    1
     4    32    33    1
     5    33    34    1
     6    34    35    1
     7    35    31    1
     8    31    25    1
     9    25    26   ar
    10    26    27   ar
    11    27    28   ar
    12    28    23    1
    13    23    24    2
    14    24     1    1
    15     1     2    2
    16     2     3    1
    17     3     4    2
    18     4     5    1
    19     5     6    1
    20    10     6    1
    21    10    11    1
    22    12    11    1
    23    12    13    1
    24    13    14    2
    25    13    15   am
    26    15    16    1
    27    16    17   ar
    28    17    18   ar
    29    18    19   ar
    30    19    20   ar
    31    20    21   ar
    32     6     7    2
    33     7     8    1
    34     8     9    2
    35    28    29   ar
    36    29    30   ar
    37    35    36    1
    38    36    37    1
    39    37    32    1
    40    30    25   ar
    41     9     1    1
    42     9     4    1
    43    12    10    1
    44    21    16   ar
    45    21    12    1
    46    15    22    1
@<TRIPOS>MOLECULE
*****
 40 46 0 0 0
SMALL
GASTEIGER

@<TRIPOS>ATOM
      1 C          59.3339   89.4043    6.8566 C.2     1  UNL1        0.1040
      2 N          58.1730   88.4546    6.8743 N.2     1  UNL1       -0.1483
      3 N          58.3680   87.5054    8.0193 N.2     1  UNL1       -0.1520
      4 C          59.6495   87.8685    8.7092 C.2     1  UNL1        0.0860
      5 C          60.3499   87.2821    9.8990 C.3     1  UNL1        0.0697
      6 C          61.6473   87.8693   10.3701 C.2     1  UNL1       -0.0378
      7 C          62.2442   89.0428    9.6515 C.2     1  UNL1       -0.0080
      8 C          61.5438   89.6293    8.4618 C.2     1  UNL1        0.0022
      9 C          60.2464   89.0421    7.9907 C.2     1  UNL1        0.0350
     10 C          62.3477   87.2828   11.5599 C.3     1  UNL1        0.0315
     11 C          63.0732   87.4646   12.8601 C.3     1  UNL1        0.0179
     12 C          62.8355   86.0854   12.3204 C.3     1  UNL1        0.0927
     13 C          62.3334   85.0640   11.3433 C.2     1  UNL1        0.2293
     14 O          61.5988   85.3508   10.0674 O.2     1  UNL1       -0.2744
     15 N          62.6949   83.7054   11.8663 N.am    1  UNL1       -0.2839
     16 C          63.4203   83.8872   13.1666 C.ar    1  UNL1        0.0467
     17 C          64.0130   82.9033   14.1313 C.ar    1  UNL1        0.0144
     18 C          64.6926   83.3904   15.3766 C.ar    1  UNL1        0.0013
     19 C          64.7795   84.8613   15.6572 C.ar    1  UNL1       -0.0002
     20 C          64.1868   85.8452   14.6925 C.ar    1  UNL1       -0.0026
     21 C          63.5072   85.3581   13.4472 C.ar    1  UNL1       -0.0008
     22 H          62.4916   82.8454   11.4324 H       1  UNL1        0.1549
     23 C          60.7267   90.4938    4.9531 C.2     1  UNL1        0.0016
     24 C          59.5452   90.5204    5.8768 C.2     1  UNL1        0.0209
     25 C          61.3605   93.8418    2.0139 C.ar    1  UNL1        0.1384
     26 C          60.0317   93.6794    2.6906 C.ar    1  UNL1        0.0369
     27 C          59.8204   92.5634    3.6704 C.ar    1  UNL1        0.0031
     28 C          60.9380   91.6098    3.9734 C.ar    1  UNL1        0.0002
     29 C          62.2668   91.7723    3.2967 C.ar    1  UNL1        0.0031
     30 C          62.4780   92.8883    2.3170 C.ar    1  UNL1        0.0369
     31 O          61.5718   94.9579    1.0341 O.3     1  UNL1       -0.4791
     32 N          63.7055   94.1694   -2.8486 N.3     1  UNL1       -0.2737
     33 C          64.2877   95.1301   -1.8545 C.3     1  UNL1        0.0758
     34 C          63.5764   95.3929   -0.5603 C.3     1  UNL1        0.0609
     35 C          62.2830   94.6951   -0.2601 C.3     1  UNL1        0.1687
     36 C          61.7009   93.7344   -1.2541 C.3     1  UNL1        0.0609
     37 C          62.4121   93.4715   -2.5484 C.3     1  UNL1        0.0758
     38 C          64.8983   95.0540   -4.9804 C.3     1  UNL1        0.0173
     39 C          64.4167   93.9066   -4.1428 C.3     1  UNL1        0.0576
     40 C          64.6464   92.4964   -4.5994 C.3     1  UNL1        0.0173
@<TRIPOS>BOND
     1    38    39    1
     2    39    40    1
     3    39    32    1
     4    32    33    1
     5    33    34    1
     6    34    35    1
     7    35    31    1
     8    31    25    1
     9    25    26   ar
    10    26    27   ar
    11    27    28   ar
    12    28    23    1
    13    23    24    2
    14    24     1    1
    15     1     2    2
    16     2     3    1
    17     3     4    2
    18     4     5    1
    19     5     6    1
    20    10     6    1
    21    10    11    1
    22    12    11    1
    23    12    13    1
    24    13    14    2
    25    13    15   am
    26    15    16    1
    27    16    17   ar
    28    17    18   ar
    29    18    19   ar
    30    19    20   ar
    31    20    21   ar
    32     6     7    2
    33     7     8    1
    34     8     9    2
    35    28    29   ar
    36    29    30   ar
    37    35    36    1
    38    36    37    1
    39    37    32    1
    40    30    25   ar
    41     9     1    1
    42     9     4    1
    43    12    10    1
    44    21    16   ar
    45    21    12    1
    46    15    22    1
@<TRIPOS>MOLECULE
*****
 40 46 0 0 0
SMALL
GASTEIGER

@<TRIPOS>ATOM
      1 C          63.4323   87.9256   16.4190 C.2     1  UNL1        0.1040
      2 N          62.7990   87.6069   17.7409 N.2     1  UNL1       -0.1483
      3 N          62.3884   86.1643   17.7224 N.2     1  UNL1       -0.1520
      4 C          62.7679   85.5915   16.3890 C.2     1  UNL1        0.0860
      5 C          62.6094   84.2193   15.8044 C.3     1  UNL1        0.0697
      6 C          63.0960   83.9356   14.4141 C.2     1  UNL1       -0.0378
      7 C          63.7412   85.0242   13.6086 C.2     1  UNL1       -0.0080
      8 C          63.8997   86.3964   14.1933 C.2     1  UNL1        0.0022
      9 C          63.4131   86.6800   15.5835 C.2     1  UNL1        0.0350
     10 C          62.9374   82.5633   13.8294 C.3     1  UNL1        0.0315
     11 C          62.6317   81.1051   14.0021 C.3     1  UNL1        0.0179
     12 C          62.9685   81.6449   12.6438 C.3     1  UNL1        0.0927
     13 C          63.3407   82.6963   11.6408 C.2     1  UNL1        0.2293
     14 O          63.5658   84.1508   11.9303 O.2     1  UNL1       -0.2744
     15 N          63.4483   82.0378   10.2974 N.am    1  UNL1       -0.2839
     16 C          63.1426   80.5794   10.4701 C.ar    1  UNL1        0.0467
     17 C          63.0959   79.4413    9.4943 C.ar    1  UNL1        0.0144
     18 C          62.7527   78.0603    9.9687 C.ar    1  UNL1        0.0013
     19 C          62.4562   77.8175   11.4189 C.ar    1  UNL1       -0.0002
     20 C          62.5029   78.9557   12.3947 C.ar    1  UNL1       -0.0026
     21 C          62.8461   80.3367   11.9203 C.ar    1  UNL1       -0.0008
     22 H          63.6790   82.4843    9.4508 H       1  UNL1        0.1549
     23 C          64.4965   89.4551   14.6084 C.2     1  UNL1        0.0016
     24 C          63.9874   89.2564   16.0053 C.2     1  UNL1        0.0209
     25 C          66.1616   93.4473   13.3674 C.ar    1  UNL1        0.1384
     26 C          66.5358   92.8587   14.6954 C.ar    1  UNL1        0.0369
     27 C          65.9807   91.5279   15.1091 C.ar    1  UNL1        0.0031
     28 C          65.0516   90.7858   14.1948 C.ar    1  UNL1        0.0002
     29 C          64.6774   91.3745   12.8668 C.ar    1  UNL1        0.0031
     30 C          65.2325   92.7052   12.4531 C.ar    1  UNL1        0.0369
     31 O          66.7167   94.7780   12.9537 O.3     1  UNL1       -0.4791
     32 N          66.3001   96.1633    8.6926 N.3     1  UNL1       -0.2737
     33 C          67.2221   95.0278    9.0254 C.3     1  UNL1        0.0758
     34 C          67.3609   94.5661   10.4457 C.3     1  UNL1        0.0609
     35 C          66.5778   95.2398   11.5333 C.3     1  UNL1        0.1687
     36 C          65.6559   96.3752   11.2006 C.3     1  UNL1        0.0609
     37 C          65.5171   96.8371    9.7802 C.3     1  UNL1        0.0758
     38 C          67.3847   96.8559    6.4356 C.3     1  UNL1        0.0173
     39 C          66.1613   96.6251    7.2722 C.3     1  UNL1        0.0576
     40 C          64.7990   96.8559    6.6884 C.3     1  UNL1        0.0173
@<TRIPOS>BOND
     1    38    39    1
     2    39    40    1
     3    39    32    1
     4    32    33    1
     5    33    34    1
     6    34    35    1
     7    35    31    1
     8    31    25    1
     9    25    26   ar
    10    26    27   ar
    11    27    28   ar
    12    28    23    1
    13    23    24    2
    14    24     1    1
    15     1     2    2
    16     2     3    1
    17     3     4    2
    18     4     5    1
    19     5     6    1
    20    10     6    1
    21    10    11    1
    22    12    11    1
    23    12    13    1
    24    13    14    2
    25    13    15   am
    26    15    16    1
    27    16    17   ar
    28    17    18   ar
    29    18    19   ar
    30    19    20   ar
    31    20    21   ar
    32     6     7    2
    33     7     8    1
    34     8     9    2
    35    28    29   ar
    36    29    30   ar
    37    35    36    1
    38    36    37    1
    39    37    32    1
    40    30    25   ar
    41     9     1    1
    42     9     4    1
    43    12    10    1
    44    21    16   ar
    45    21    12    1
    46    15    22    1
