@<TRIPOS>MOLECULE
*****
 28 31 0 0 0
SMALL
GASTEIGER

@<TRIPOS>ATOM
      1 C          63.1455   90.2913   12.0521 C.ar    1  UNL1        0.1637
      2 N          63.7799   90.0856   13.3957 N.ar    1  UNL1       -0.2334
      3 C          64.9061   91.0670   13.5317 C.ar    1  UNL1        0.0940
      4 C          65.8834   91.3259   14.6397 C.ar    1  UNL1        0.0239
      5 C          66.9224   92.3972   14.4881 C.ar    1  UNL1        0.0790
      6 C          66.9840   93.2094   13.2287 C.ar    1  UNL1        0.0798
      7 C          66.0067   92.9504   12.1206 C.ar    1  UNL1        0.2972
      8 C          64.9678   91.8792   12.2721 C.ar    1  UNL1        0.1179
      9 S          63.8797   91.3998   11.3577 S.2     1  UNL1       -0.0558
     10 C          60.5825   88.1933   10.0283 C.3     1  UNL1        0.2255
     11 C          59.7974   88.4896   11.2717 C.3     1  UNL1        0.2407
     12 O          60.6619   89.3115   12.1811 O.2     1  UNL1       -0.4564
     13 C          61.9814   89.5233   11.4998 C.2     1  UNL1        0.2456
     14 N          61.9324   88.8322   10.1694 N.2     1  UNL1       -0.2248
     15 O          58.7274   87.6315    8.2985 O.2     1  UNL1       -0.2726
     16 C          60.1023   87.3980    8.8508 C.2     1  UNL1        0.2519
     17 N          60.9969   86.3690    8.2256 N.am    1  UNL1       -0.2779
     18 C          60.6562   85.5017    7.0501 C.3     1  UNL1        0.0935
     19 C          61.8381   84.6234    6.7641 C.3     1  UNL1        0.0233
     20 C          62.9092   84.9478    7.7629 C.3     1  UNL1        0.0233
     21 C          62.3893   86.0266    8.6661 C.3     1  UNL1        0.0935
     22 C          67.8998   92.6562   15.5963 C.3     1  UNL1        0.4188
     23 F          68.8771   92.9152   16.7043 F       1  UNL1       -0.1659
     24 F          66.7622   92.8411   16.5563 F       1  UNL1       -0.1659
     25 F          69.0373   92.4714   14.6361 F       1  UNL1       -0.1659
     26 N          66.0684   93.7627   10.8611 N.pl3   1  UNL1        0.0815
     27 O          65.3610   95.0833   10.7848 O.2     1  UNL1        0.0415
     28 O          66.8375   93.2544    9.6778 O.co2   1  UNL1       -0.5760
@<TRIPOS>UNITY_ATOM_ATTR
26 1
charge 1
28 1
charge -1
@<TRIPOS>BOND
     1    15    16    2
     2    10    16    1
     3    10    11    1
     4    11    12    1
     5    12    13    1
     6    13     1    1
     7     1     2   ar
     8     2     3   ar
     9     3     4   ar
    10     4     5   ar
    11     5    22    1
    12    22    23    1
    13    22    24    1
    14    22    25    1
    15     5     6   ar
    16     6     7   ar
    17     7    26    1
    18    26    27    2
    19    26    28    1
    20     7     8   ar
    21     8     9   ar
    22    13    14    2
    23    16    17   am
    24    17    18    1
    25    18    19    1
    26    19    20    1
    27    20    21    1
    28    14    10    1
    29    21    17    1
    30     9     1   ar
    31     8     3   ar
@<TRIPOS>MOLECULE
*****
 28 31 0 0 0
SMALL
GASTEIGER

@<TRIPOS>ATOM
      1 C          63.1026   90.4500   11.1260 C.ar    1  UNL1        0.1637
      2 N          63.4875   91.5313   10.1603 N.ar    1  UNL1       -0.2334
      3 C          64.4665   92.4379   10.8457 C.ar    1  UNL1        0.0940
      4 C          65.1859   93.6706   10.3842 C.ar    1  UNL1        0.0239
      5 C          66.1254   94.3822   11.3121 C.ar    1  UNL1        0.0790
      6 C          66.3455   93.8612   12.7013 C.ar    1  UNL1        0.0798
      7 C          65.6261   92.6286   13.1628 C.ar    1  UNL1        0.2972
      8 C          64.6866   91.9169   12.2350 C.ar    1  UNL1        0.1179
      9 S          63.8437   90.6883   12.4083 S.2     1  UNL1       -0.0558
     10 C          60.7838   87.6803    9.7055 C.3     1  UNL1        0.2255
     11 C          60.5581   87.5195   11.1797 C.3     1  UNL1        0.2407
     12 O          61.3992   88.5374   11.8912 O.2     1  UNL1       -0.4564
     13 C          62.1449   89.3274   10.8568 C.2     1  UNL1        0.2456
     14 N          61.7646   88.7977    9.5060 N.2     1  UNL1       -0.2248
     15 O          58.6773   87.0205    8.3356 O.2     1  UNL1       -0.2726
     16 C          60.1417   86.8667    8.6213 C.2     1  UNL1        0.2519
     17 N          60.9641   85.8992    7.8226 N.am    1  UNL1       -0.2779
     18 C          60.4634   85.0224    6.7133 C.3     1  UNL1        0.0935
     19 C          61.6214   84.2200    6.1982 C.3     1  UNL1        0.0233
     20 C          62.8377   84.6010    6.9891 C.3     1  UNL1        0.0233
     21 C          62.4314   85.6388    7.9931 C.3     1  UNL1        0.0935
     22 C          66.8448   95.6150   10.8506 C.3     1  UNL1        0.4188
     23 F          67.5643   96.8476   10.3891 F       1  UNL1       -0.1659
     24 F          66.0879   96.4326   11.8549 F       1  UNL1       -0.1659
     25 F          67.6017   94.7973    9.8464 F       1  UNL1       -0.1659
     26 N          65.8462   92.1076   14.5521 N.pl3   1  UNL1        0.0815
     27 O          64.8343   92.3818   15.6251 O.2     1  UNL1        0.0415
     28 O          67.0781   91.3125   14.8686 O.co2   1  UNL1       -0.5760
@<TRIPOS>UNITY_ATOM_ATTR
26 1
charge 1
28 1
charge -1
@<TRIPOS>BOND
     1    15    16    2
     2    10    16    1
     3    10    11    1
     4    11    12    1
     5    12    13    1
     6    13     1    1
     7     1     2   ar
     8     2     3   ar
     9     3     4   ar
    10     4     5   ar
    11     5    22    1
    12    22    23    1
    13    22    24    1
    14    22    25    1
    15     5     6   ar
    16     6     7   ar
    17     7    26    1
    18    26    27    2
    19    26    28    1
    20     7     8   ar
    21     8     9   ar
    22    13    14    2
    23    16    17   am
    24    17    18    1
    25    18    19    1
    26    19    20    1
    27    20    21    1
    28    14    10    1
    29    21    17    1
    30     9     1   ar
    31     8     3   ar
@<TRIPOS>MOLECULE
*****
 28 31 0 0 0
SMALL
GASTEIGER

@<TRIPOS>ATOM
      1 C          62.3773   89.5401   12.5744 C.ar    1  UNL1        0.1637
      2 N          61.4910   90.3522   11.6771 N.ar    1  UNL1       -0.2334
      3 C          61.1494   89.5139   10.4811 C.ar    1  UNL1        0.0940
      4 C          60.3108   89.7899    9.2685 C.ar    1  UNL1        0.0239
      5 C          60.1473   88.7357    8.2139 C.ar    1  UNL1        0.0790
      6 C          60.8224   87.4056    8.3720 C.ar    1  UNL1        0.0798
      7 C          61.6610   87.1296    9.5846 C.ar    1  UNL1        0.2972
      8 C          61.8245   88.1837   10.6392 C.ar    1  UNL1        0.1179
      9 S          62.5834   88.2000   11.9329 S.2     1  UNL1       -0.0558
     10 C          64.2518   91.2005   15.5401 C.3     1  UNL1        0.2255
     11 C          63.4408   90.1608   16.2553 C.3     1  UNL1        0.2407
     12 O          62.6399   89.4124   15.2314 O.2     1  UNL1       -0.4564
     13 C          62.9559   89.9894   13.8834 C.2     1  UNL1        0.2456
     14 N          63.9521   91.0945   14.0741 N.2     1  UNL1       -0.2248
     15 O          64.7509   92.9894   17.3567 O.2     1  UNL1       -0.2726
     16 C          65.1965   92.1749   16.1787 C.2     1  UNL1        0.2519
     17 N          66.5870   92.3349   15.6392 N.am    1  UNL1       -0.2779
     18 C          67.6374   93.2645   16.1706 C.3     1  UNL1        0.0935
     19 C          68.8708   93.0974   15.3334 C.3     1  UNL1        0.0233
     20 C          68.5826   92.0645   14.2845 C.3     1  UNL1        0.0233
     21 C          67.1712   91.5932   14.4735 C.3     1  UNL1        0.0935
     22 C          59.3086   89.0117    7.0012 C.3     1  UNL1        0.4188
     23 F          58.4700   89.2877    5.7886 F       1  UNL1       -0.1659
     24 F          58.3852   87.8939    7.3855 F       1  UNL1       -0.1659
     25 F          60.2321   90.1295    6.6170 F       1  UNL1       -0.1659
     26 N          62.3362   85.7995    9.7427 N.pl3   1  UNL1        0.0815
     27 O          63.2341   85.2806    8.6588 O.2     1  UNL1        0.0415
     28 O          62.1134   84.9882   10.9845 O.co2   1  UNL1       -0.5760
@<TRIPOS>UNITY_ATOM_ATTR
26 1
charge 1
28 1
charge -1
@<TRIPOS>BOND
     1    15    16    2
     2    10    16    1
     3    10    11    1
     4    11    12    1
     5    12    13    1
     6    13     1    1
     7     1     2   ar
     8     2     3   ar
     9     3     4   ar
    10     4     5   ar
    11     5    22    1
    12    22    23    1
    13    22    24    1
    14    22    25    1
    15     5     6   ar
    16     6     7   ar
    17     7    26    1
    18    26    27    2
    19    26    28    1
    20     7     8   ar
    21     8     9   ar
    22    13    14    2
    23    16    17   am
    24    17    18    1
    25    18    19    1
    26    19    20    1
    27    20    21    1
    28    14    10    1
    29    21    17    1
    30     9     1   ar
    31     8     3   ar
@<TRIPOS>MOLECULE
*****
 28 31 0 0 0
SMALL
GASTEIGER

@<TRIPOS>ATOM
      1 C          63.6467   87.2368   14.3002 C.ar    1  UNL1        0.1637
      2 N          63.6832   85.9955   15.1415 N.ar    1  UNL1       -0.2334
      3 C          63.3551   84.8277   14.2591 C.ar    1  UNL1        0.0940
      4 C          63.2433   83.3584   14.5390 C.ar    1  UNL1        0.0239
      5 C          62.8921   82.4086   13.4323 C.ar    1  UNL1        0.0790
      6 C          62.6527   82.9282   12.0458 C.ar    1  UNL1        0.0798
      7 C          62.7645   84.3976   11.7658 C.ar    1  UNL1        0.2972
      8 C          63.1157   85.3474   12.8724 C.ar    1  UNL1        0.1179
      9 S          63.2959   86.8363   12.8979 S.2     1  UNL1       -0.0558
     10 C          64.8348   90.8710   14.9688 C.3     1  UNL1        0.2255
     11 C          63.8157   90.6947   16.0552 C.3     1  UNL1        0.2407
     12 O          63.2466   89.3119   15.9370 O.2     1  UNL1       -0.4564
     13 C          63.9140   88.6335   14.7775 C.2     1  UNL1        0.2456
     14 N          64.8956   89.5970   14.1791 N.2     1  UNL1       -0.2248
     15 O          66.3973   92.7533   15.8435 O.2     1  UNL1       -0.2726
     16 C          65.6500   92.1044   14.7163 C.2     1  UNL1        0.2519
     17 N          65.7181   92.6892   13.3366 N.am    1  UNL1       -0.2779
     18 C          66.4879   93.9121   12.9343 C.3     1  UNL1        0.0935
     19 C          66.2738   94.1323   11.4660 C.3     1  UNL1        0.0233
     20 C          65.3717   93.0455   10.9610 C.3     1  UNL1        0.0233
     21 C          65.0283   92.1536   12.1170 C.3     1  UNL1        0.0935
     22 C          62.7803   80.9391   13.7123 C.3     1  UNL1        0.4188
     23 F          62.6685   79.4698   13.9923 F       1  UNL1       -0.1659
     24 F          64.2412   80.7717   13.4164 F       1  UNL1       -0.1659
     25 F          61.3193   81.1067   14.0082 F       1  UNL1       -0.1659
     26 N          62.5252   84.9172   10.3792 N.pl3   1  UNL1        0.0815
     27 O          63.4590   84.5432    9.2664 O.2     1  UNL1        0.0415
     28 O          61.3520   85.8109   10.1053 O.co2   1  UNL1       -0.5760
@<TRIPOS>UNITY_ATOM_ATTR
26 1
charge 1
28 1
charge -1
@<TRIPOS>BOND
     1    15    16    2
     2    10    16    1
     3    10    11    1
     4    11    12    1
     5    12    13    1
     6    13     1    1
     7     1     2   ar
     8     2     3   ar
     9     3     4   ar
    10     4     5   ar
    11     5    22    1
    12    22    23    1
    13    22    24    1
    14    22    25    1
    15     5     6   ar
    16     6     7   ar
    17     7    26    1
    18    26    27    2
    19    26    28    1
    20     7     8   ar
    21     8     9   ar
    22    13    14    2
    23    16    17   am
    24    17    18    1
    25    18    19    1
    26    19    20    1
    27    20    21    1
    28    14    10    1
    29    21    17    1
    30     9     1   ar
    31     8     3   ar
@<TRIPOS>MOLECULE
*****
 28 31 0 0 0
SMALL
GASTEIGER

@<TRIPOS>ATOM
      1 C          64.5775   89.4868   14.3142 C.ar    1  UNL1        0.1637
      2 N          64.2412   90.0331   12.9583 N.ar    1  UNL1       -0.2334
      3 C          64.9233   91.3609   12.8113 C.ar    1  UNL1        0.0940
      4 C          64.9521   92.3556   11.6890 C.ar    1  UNL1        0.0239
      5 C          65.7390   93.6247   11.8317 C.ar    1  UNL1        0.0790
      6 C          66.4969   93.8990   13.0966 C.ar    1  UNL1        0.0798
      7 C          66.4680   92.9043   14.2190 C.ar    1  UNL1        0.2972
      8 C          65.6812   91.6352   14.0763 C.ar    1  UNL1        0.1179
      9 S          65.4675   90.4770   15.0052 S.2     1  UNL1       -0.0558
     10 C          63.6282   85.8142   15.1368 C.3     1  UNL1        0.2255
     11 C          63.1357   86.5228   16.3638 C.3     1  UNL1        0.2407
     12 O          63.4314   87.9848   16.2050 O.2     1  UNL1       -0.4564
     13 C          64.1066   88.1798   14.8798 C.2     1  UNL1        0.2456
     14 N          64.2283   86.8384   14.2197 N.2     1  UNL1       -0.2248
     15 O          63.7446   83.3640   15.9928 O.2     1  UNL1       -0.2726
     16 C          63.5367   84.3405   14.8733 C.2     1  UNL1        0.2519
     17 N          63.2372   83.8430   13.4901 N.am    1  UNL1       -0.2779
     18 C          63.1156   82.4062   13.0770 C.3     1  UNL1        0.0935
     19 C          62.8101   82.3703   11.6088 C.3     1  UNL1        0.0233
     20 C          62.7429   83.7850   11.1147 C.3     1  UNL1        0.0233
     21 C          63.0069   84.6952   12.2773 C.3     1  UNL1        0.0935
     22 C          65.7679   94.6195   10.7093 C.3     1  UNL1        0.4188
     23 F          65.7968   95.6142    9.5869 F       1  UNL1       -0.1659
     24 F          65.8125   93.4968    9.7155 F       1  UNL1       -0.1659
     25 F          65.7233   95.7421   11.7031 F       1  UNL1       -0.1659
     26 N          67.2259   93.1787   15.4840 N.pl3   1  UNL1        0.0815
     27 O          66.5396   93.0527   16.8119 O.2     1  UNL1        0.0415
     28 O          68.6701   93.5791   15.4212 O.co2   1  UNL1       -0.5760
@<TRIPOS>UNITY_ATOM_ATTR
26 1
charge 1
28 1
charge -1
@<TRIPOS>BOND
     1    15    16    2
     2    10    16    1
     3    10    11    1
     4    11    12    1
     5    12    13    1
     6    13     1    1
     7     1     2   ar
     8     2     3   ar
     9     3     4   ar
    10     4     5   ar
    11     5    22    1
    12    22    23    1
    13    22    24    1
    14    22    25    1
    15     5     6   ar
    16     6     7   ar
    17     7    26    1
    18    26    27    2
    19    26    28    1
    20     7     8   ar
    21     8     9   ar
    22    13    14    2
    23    16    17   am
    24    17    18    1
    25    18    19    1
    26    19    20    1
    27    20    21    1
    28    14    10    1
    29    21    17    1
    30     9     1   ar
    31     8     3   ar
@<TRIPOS>MOLECULE
*****
 28 31 0 0 0
SMALL
GASTEIGER

@<TRIPOS>ATOM
      1 C          63.8350   90.0013   12.1106 C.ar    1  UNL1        0.1637
      2 N          64.0853   90.9489   10.9750 N.ar    1  UNL1       -0.2334
      3 C          64.8581   92.1184   11.5091 C.ar    1  UNL1        0.0940
      4 C          65.3842   93.3589   10.8501 C.ar    1  UNL1        0.0239
      5 C          66.1376   94.3747   11.6568 C.ar    1  UNL1        0.0790
      6 C          66.3649   94.1499   13.1223 C.ar    1  UNL1        0.0798
      7 C          65.8388   92.9093   13.7812 C.ar    1  UNL1        0.2972
      8 C          65.0854   91.8935   12.9746 C.ar    1  UNL1        0.1179
      9 S          64.4531   90.5851   13.3464 S.2     1  UNL1       -0.0558
     10 C          62.4477   86.3857   12.3728 C.3     1  UNL1        0.2255
     11 C          61.4714   87.0022   11.4153 C.3     1  UNL1        0.2407
     12 O          61.8722   88.4316   11.2006 O.2     1  UNL1       -0.4564
     13 C          63.0963   88.6986   12.0253 C.2     1  UNL1        0.2456
     14 N          63.4521   87.4343   12.7498 N.2     1  UNL1       -0.2248
     15 O          61.8861   84.6604   14.2322 O.2     1  UNL1       -0.2726
     16 C          62.4240   84.9696   12.8666 C.2     1  UNL1        0.2519
     17 N          62.9383   83.8626   11.9947 N.am    1  UNL1       -0.2779
     18 C          62.9782   82.4060   12.3508 C.3     1  UNL1        0.0935
     19 C          63.5674   81.6610   11.1898 C.3     1  UNL1        0.0233
     20 C          63.8917   82.6572   10.1163 C.3     1  UNL1        0.0233
     21 C          63.5029   84.0178   10.6137 C.3     1  UNL1        0.0935
     22 C          66.6637   95.6154   10.9979 C.3     1  UNL1        0.4188
     23 F          67.1897   96.8560   10.3390 F       1  UNL1       -0.1659
     24 F          67.5607   94.7772   10.1361 F       1  UNL1       -0.1659
     25 F          65.7666   96.4535   11.8597 F       1  UNL1       -0.1659
     26 N          66.0661   92.6845   15.2467 N.pl3   1  UNL1        0.0815
     27 O          67.4505   92.7865   15.8153 O.2     1  UNL1        0.0415
     28 O          64.9092   92.3577   16.1437 O.co2   1  UNL1       -0.5760
@<TRIPOS>UNITY_ATOM_ATTR
26 1
charge 1
28 1
charge -1
@<TRIPOS>BOND
     1    15    16    2
     2    10    16    1
     3    10    11    1
     4    11    12    1
     5    12    13    1
     6    13     1    1
     7     1     2   ar
     8     2     3   ar
     9     3     4   ar
    10     4     5   ar
    11     5    22    1
    12    22    23    1
    13    22    24    1
    14    22    25    1
    15     5     6   ar
    16     6     7   ar
    17     7    26    1
    18    26    27    2
    19    26    28    1
    20     7     8   ar
    21     8     9   ar
    22    13    14    2
    23    16    17   am
    24    17    18    1
    25    18    19    1
    26    19    20    1
    27    20    21    1
    28    14    10    1
    29    21    17    1
    30     9     1   ar
    31     8     3   ar
@<TRIPOS>MOLECULE
*****
 28 31 0 0 0
SMALL
GASTEIGER

@<TRIPOS>ATOM
      1 C          63.4911   87.7251   13.0311 C.ar    1  UNL1        0.1637
      2 N          63.6529   86.5208   13.9107 N.ar    1  UNL1       -0.2334
      3 C          63.2494   85.3118   13.1199 C.ar    1  UNL1        0.0940
      4 C          63.2032   83.8537   13.4691 C.ar    1  UNL1        0.0239
      5 C          62.7458   82.8526   12.4499 C.ar    1  UNL1        0.0790
      6 C          62.3347   83.3096   11.0817 C.ar    1  UNL1        0.0798
      7 C          62.3808   84.7676   10.7326 C.ar    1  UNL1        0.2972
      8 C          62.8382   85.7687   11.7517 C.ar    1  UNL1        0.1179
      9 S          62.9876   87.2602   11.6968 S.2     1  UNL1       -0.0558
     10 C          64.6190   91.0883   14.6066 C.3     1  UNL1        0.2255
     11 C          63.8394   91.5712   13.4196 C.3     1  UNL1        0.2407
     12 O          63.3220   90.3701   12.6849 O.2     1  UNL1       -0.4564
     13 C          63.7818   89.1449   13.4179 C.2     1  UNL1        0.2456
     14 N          64.5834   89.5887   14.6056 N.2     1  UNL1       -0.2248
     15 O          64.5589   92.4657   16.8086 O.2     1  UNL1       -0.2726
     16 C          65.3123   91.9531   15.6172 C.2     1  UNL1        0.2519
     17 N          66.7592   92.3052   15.4364 N.am    1  UNL1       -0.2779
     18 C          67.5815   93.1556   16.3587 C.3     1  UNL1        0.0935
     19 C          68.9683   93.2447   15.7938 C.3     1  UNL1        0.0233
     20 C          69.0030   92.4495   14.5225 C.3     1  UNL1        0.0233
     21 C          67.6377   91.8688   14.3016 C.3     1  UNL1        0.0935
     22 C          62.6997   81.3945   12.7990 C.3     1  UNL1        0.4188
     23 F          62.6535   79.9364   13.1482 F       1  UNL1       -0.1659
     24 F          62.5726   81.7464   14.2516 F       1  UNL1       -0.1659
     25 F          62.8268   81.0426   11.3465 F       1  UNL1       -0.1659
     26 N          61.9696   85.2246    9.3643 N.pl3   1  UNL1        0.0815
     27 O          62.8577   84.9563    8.1856 O.2     1  UNL1        0.0415
     28 O          60.6703   85.9497    9.1748 O.co2   1  UNL1       -0.5760
@<TRIPOS>UNITY_ATOM_ATTR
26 1
charge 1
28 1
charge -1
@<TRIPOS>BOND
     1    15    16    2
     2    10    16    1
     3    10    11    1
     4    11    12    1
     5    12    13    1
     6    13     1    1
     7     1     2   ar
     8     2     3   ar
     9     3     4   ar
    10     4     5   ar
    11     5    22    1
    12    22    23    1
    13    22    24    1
    14    22    25    1
    15     5     6   ar
    16     6     7   ar
    17     7    26    1
    18    26    27    2
    19    26    28    1
    20     7     8   ar
    21     8     9   ar
    22    13    14    2
    23    16    17   am
    24    17    18    1
    25    18    19    1
    26    19    20    1
    27    20    21    1
    28    14    10    1
    29    21    17    1
    30     9     1   ar
    31     8     3   ar
@<TRIPOS>MOLECULE
*****
 28 31 0 0 0
SMALL
GASTEIGER

@<TRIPOS>ATOM
      1 C          62.6796   88.8783   12.5772 C.ar    1  UNL1        0.1637
      2 N          63.1215   87.5550   12.0261 N.ar    1  UNL1       -0.2334
      3 C          62.4130   87.3360   10.7223 C.ar    1  UNL1        0.0940
      4 C          62.4554   86.2083    9.7341 C.ar    1  UNL1        0.0239
      5 C          61.6178   86.2686    8.4911 C.ar    1  UNL1        0.0790
      6 C          60.7381   87.4563    8.2363 C.ar    1  UNL1        0.0798
      7 C          60.6957   88.5840    9.2245 C.ar    1  UNL1        0.2972
      8 C          61.5332   88.5238   10.4675 C.ar    1  UNL1        0.1179
      9 S          61.6979   89.4771   11.6139 S.2     1  UNL1       -0.0558
     10 C          64.2412   90.9510   15.4635 C.3     1  UNL1        0.2255
     11 C          63.4490   89.9351   16.2318 C.3     1  UNL1        0.2407
     12 O          62.7676   89.0350   15.2441 O.2     1  UNL1       -0.4564
     13 C          63.1387   89.4946   13.8653 C.2     1  UNL1        0.2456
     14 N          64.0494   90.6788   14.0009 N.2     1  UNL1       -0.2248
     15 O          64.5114   92.9280   17.1273 O.2     1  UNL1       -0.2726
     16 C          65.0782   92.0467   16.0540 C.2     1  UNL1        0.2519
     17 N          66.4822   92.2612   15.5713 N.am    1  UNL1       -0.2779
     18 C          67.4335   93.3106   16.0647 C.3     1  UNL1        0.0935
     19 C          68.7206   93.1618   15.3087 C.3     1  UNL1        0.0233
     20 C          68.5646   92.0204   14.3481 C.3     1  UNL1        0.0233
     21 C          67.1812   91.4637   14.5103 C.3     1  UNL1        0.0935
     22 C          61.6602   85.1408    7.5028 C.3     1  UNL1        0.4188
     23 F          61.7025   84.0131    6.5146 F       1  UNL1       -0.1659
     24 F          60.2092   85.3594    7.1914 F       1  UNL1       -0.1659
     25 F          63.1111   84.9223    7.8143 F       1  UNL1       -0.1659
     26 N          59.8159   89.7719    8.9697 N.pl3   1  UNL1        0.0815
     27 O          59.2362   89.9968    7.6046 O.2     1  UNL1        0.0415
     28 O          59.5157   90.7348   10.0800 O.co2   1  UNL1       -0.5760
@<TRIPOS>UNITY_ATOM_ATTR
26 1
charge 1
28 1
charge -1
@<TRIPOS>BOND
     1    15    16    2
     2    10    16    1
     3    10    11    1
     4    11    12    1
     5    12    13    1
     6    13     1    1
     7     1     2   ar
     8     2     3   ar
     9     3     4   ar
    10     4     5   ar
    11     5    22    1
    12    22    23    1
    13    22    24    1
    14    22    25    1
    15     5     6   ar
    16     6     7   ar
    17     7    26    1
    18    26    27    2
    19    26    28    1
    20     7     8   ar
    21     8     9   ar
    22    13    14    2
    23    16    17   am
    24    17    18    1
    25    18    19    1
    26    19    20    1
    27    20    21    1
    28    14    10    1
    29    21    17    1
    30     9     1   ar
    31     8     3   ar
@<TRIPOS>MOLECULE
*****
 28 31 0 0 0
SMALL
GASTEIGER

@<TRIPOS>ATOM
      1 C          63.7320   87.3462   14.0284 C.ar    1  UNL1        0.1637
      2 N          63.7862   86.1134   14.8811 N.ar    1  UNL1       -0.2334
      3 C          63.4042   84.9415   14.0263 C.ar    1  UNL1        0.0940
      4 C          63.2832   83.4770   14.3271 C.ar    1  UNL1        0.0239
      5 C          62.8719   82.5210   13.2468 C.ar    1  UNL1        0.0790
      6 C          62.5818   83.0295   11.8658 C.ar    1  UNL1        0.0798
      7 C          62.7028   84.4940   11.5651 C.ar    1  UNL1        0.2972
      8 C          63.1140   85.4500   12.6453 C.ar    1  UNL1        0.1179
      9 S          63.3166   86.9363   12.6466 S.2     1  UNL1       -0.0558
     10 C          64.9422   90.9950   14.5647 C.3     1  UNL1        0.2255
     11 C          64.0822   90.7936   15.7771 C.3     1  UNL1        0.2407
     12 O          63.5242   89.4023   15.7238 O.2     1  UNL1       -0.4564
     13 C          64.0393   88.7438   14.4784 C.2     1  UNL1        0.2456
     14 N          64.9157   89.7281   13.7621 N.2     1  UNL1       -0.2248
     15 O          65.1904   93.1472   13.1308 O.2     1  UNL1       -0.2726
     16 C          65.6963   92.2439   14.2162 C.2     1  UNL1        0.2519
     17 N          66.9563   92.5896   14.9531 N.am    1  UNL1       -0.2779
     18 C          67.8128   93.7980   14.7165 C.3     1  UNL1        0.0935
     19 C          68.9668   93.7428   15.6732 C.3     1  UNL1        0.0233
     20 C          68.8235   92.5002   16.5010 C.3     1  UNL1        0.0233
     21 C          67.5809   91.7875   16.0561 C.3     1  UNL1        0.0935
     22 C          62.7509   81.0563   13.5476 C.3     1  UNL1        0.4188
     23 F          62.6299   79.5918   13.8483 F       1  UNL1       -0.1659
     24 F          61.2560   81.1791   13.5431 F       1  UNL1       -0.1659
     25 F          64.2459   80.9337   13.5520 F       1  UNL1       -0.1659
     26 N          62.4126   85.0025   10.1840 N.pl3   1  UNL1        0.0815
     27 O          61.2062   85.8595    9.9384 O.2     1  UNL1        0.0415
     28 O          63.3288   84.6541    9.0486 O.co2   1  UNL1       -0.5760
@<TRIPOS>UNITY_ATOM_ATTR
26 1
charge 1
28 1
charge -1
@<TRIPOS>BOND
     1    15    16    2
     2    10    16    1
     3    10    11    1
     4    11    12    1
     5    12    13    1
     6    13     1    1
     7     1     2   ar
     8     2     3   ar
     9     3     4   ar
    10     4     5   ar
    11     5    22    1
    12    22    23    1
    13    22    24    1
    14    22    25    1
    15     5     6   ar
    16     6     7   ar
    17     7    26    1
    18    26    27    2
    19    26    28    1
    20     7     8   ar
    21     8     9   ar
    22    13    14    2
    23    16    17   am
    24    17    18    1
    25    18    19    1
    26    19    20    1
    27    20    21    1
    28    14    10    1
    29    21    17    1
    30     9     1   ar
    31     8     3   ar
