@<TRIPOS>MOLECULE
*****
 35 38 0 0 0
SMALL
GASTEIGER

@<TRIPOS>ATOM
      1 C          63.5758   88.2679   15.4663 C.3     1  UNL1        0.2246
      2 C          63.7118   86.7922   15.2348 C.2     1  UNL1        0.0436
      3 C          63.4648   85.8307   16.3594 C.2     1  UNL1        0.0288
      4 C          63.0818   86.3450   17.7154 C.2     1  UNL1        0.0896
      5 N          62.9457   87.8208   17.9469 N.am    1  UNL1       -0.1770
      6 C          63.1927   88.7822   16.8223 C.2     1  UNL1        0.2627
      7 O          63.0566   90.2580   17.0538 O.2     1  UNL1       -0.2719
      8 C          62.2222   90.2499   10.0511 C.3     1  UNL1        0.0312
      9 C          63.3194   90.8958   10.8443 C.2     1  UNL1        0.0125
     10 C          64.0819   92.0513   10.2670 C.2     1  UNL1        0.0007
     11 C          65.1790   92.6971   11.0601 C.2     1  UNL1        0.0566
     12 C          65.5138   92.1874   12.4306 C.2     1  UNL1        0.0513
     13 C          64.7513   91.0318   13.0079 C.2     1  UNL1        0.2235
     14 N          64.8556   90.3170   14.3225 N.2     1  UNL1       -0.0378
     15 C          63.8227   89.2294   14.3418 C.2     1  UNL1        0.3605
     16 N          63.0802   89.2720   13.0391 N.2     1  UNL1       -0.0547
     17 C          63.6541   90.3860   12.2147 C.3     1  UNL1        0.2975
     18 C          65.9416   93.8528   10.4827 C.2     1  UNL1        0.2492
     19 O          65.3902   95.2436   10.5898 O.2     1  UNL1       -0.2699
     20 N          67.2555   93.6175    9.7984 N.am    1  UNL1       -0.2726
     21 C          68.0179   94.7730    9.2211 C.3     1  UNL1        0.1152
     22 C          67.8069   92.2266    9.6913 C.3     1  UNL1        0.1152
     23 N          64.0949   86.2778   13.8789 N.pl3   1  UNL1       -0.3329
     24 H          64.3226   86.9096   13.1590 H       1  UNL1        0.1466
     25 C          64.1311   84.8008   13.6196 C.3     1  UNL1        0.1211
     26 C          63.0785   84.1640   12.7615 C.3     1  UNL1        0.1522
     27 O          62.3689   82.9306   13.2362 O.3     1  UNL1       -0.3783
     28 H          62.7072   82.6790   14.1098 H       1  UNL1        0.2109
     29 C          62.7355   84.7605   11.4286 C.ar    1  UNL1        0.0067
     30 C          63.4852   84.3350   10.2012 C.ar    1  UNL1       -0.0018
     31 C          63.1422   84.9315    8.8683 C.ar    1  UNL1        0.0006
     32 C          62.0494   85.9536    8.7629 C.ar    1  UNL1        0.0114
     33 C          61.2996   86.3791    9.9904 C.ar    1  UNL1        0.0574
     34 CL         60.2068   87.4011    9.8850 Cl      1  UNL1       -0.0823
     35 C          61.6426   85.7826   11.3232 C.ar    1  UNL1        0.0095
@<TRIPOS>BOND
     1     8     9    1
     2     9    10    2
     3    10    11    1
     4    11    18    1
     5    18    19    2
     6    18    20   am
     7    20    21    1
     8    20    22    1
     9    11    12    2
    10    12    13    1
    11    13    14    2
    12    14    15    1
    13    15     1    1
    14     1     2    1
    15     2    23    1
    16    23    25    1
    17    25    26    1
    18    26    27    1
    19    26    29    1
    20    29    30   ar
    21    30    31   ar
    22    31    32   ar
    23    32    33   ar
    24    33    34    1
    25    33    35   ar
    26     2     3    2
    27     3     4    1
    28     4     5    2
    29     5     6    1
    30     6     7    2
    31    15    16    2
    32    16    17    1
    33    17     9    1
    34    17    13    1
    35     6     1    1
    36    35    29   ar
    37    23    24    1
    38    27    28    1
@<TRIPOS>MOLECULE
*****
 35 38 0 0 0
SMALL
GASTEIGER

@<TRIPOS>ATOM
      1 C          61.3779   87.8971    9.8301 C.3     1  UNL1        0.2246
      2 C          61.6612   86.5403    9.2566 C.2     1  UNL1        0.0436
      3 C          60.8286   86.0160    8.1243 C.2     1  UNL1        0.0288
      4 C          59.7128   86.8484    7.5656 C.2     1  UNL1        0.0896
      5 N          59.4295   88.2051    8.1391 N.am    1  UNL1       -0.1770
      6 C          60.2621   88.7294    9.2714 C.2     1  UNL1        0.2627
      7 O          59.9788   90.0861    9.8450 O.2     1  UNL1       -0.2719
      8 C          64.4107   86.9132   14.8220 C.3     1  UNL1        0.0312
      9 C          64.3115   88.2978   14.2536 C.2     1  UNL1        0.0125
     10 C          64.9829   89.4442   14.9500 C.2     1  UNL1        0.0007
     11 C          64.8837   90.8288   14.3817 C.2     1  UNL1        0.0566
     12 C          64.1132   91.0671   13.1169 C.2     1  UNL1        0.0513
     13 C          63.4418   89.9206   12.4206 C.2     1  UNL1        0.2235
     14 N          62.6194   89.8498   11.1681 N.2     1  UNL1       -0.0378
     15 C          62.2104   88.4214   10.9624 C.2     1  UNL1        0.3605
     16 N          62.7799   87.6094   12.0877 N.2     1  UNL1       -0.0547
     17 C          63.5410   88.5360   12.9889 C.3     1  UNL1        0.2975
     18 C          65.5551   91.9753   15.0782 C.2     1  UNL1        0.2492
     19 O          64.9014   92.6184   16.2652 O.2     1  UNL1       -0.2699
     20 N          66.8803   92.4786   14.5875 N.am    1  UNL1       -0.2726
     21 C          67.5516   93.6250   15.2839 C.3     1  UNL1        0.1152
     22 C          67.5340   91.8355   13.4005 C.3     1  UNL1        0.1152
     23 N          62.7769   85.7079    9.8152 N.pl3   1  UNL1       -0.3329
     24 H          63.5131   86.1380   10.3075 H       1  UNL1        0.1466
     25 C          62.7712   84.2202    9.6238 C.3     1  UNL1        0.1211
     26 C          63.6012   83.3460   10.5165 C.3     1  UNL1        0.1522
     27 O          64.9886   82.9538   10.1027 O.3     1  UNL1       -0.3783
     28 H          65.1917   83.3466    9.2393 H       1  UNL1        0.2109
     29 C          63.0437   82.8640   11.8230 C.ar    1  UNL1        0.0067
     30 C          62.6338   81.4297   11.9801 C.ar    1  UNL1       -0.0018
     31 C          62.0764   80.9477   13.2866 C.ar    1  UNL1        0.0006
     32 C          61.9289   81.9000   14.4360 C.ar    1  UNL1        0.0114
     33 C          62.3388   83.3343   14.2790 C.ar    1  UNL1        0.0574
     34 CL         62.1912   84.2866   15.4284 Cl      1  UNL1       -0.0823
     35 C          62.8962   83.8163   12.9725 C.ar    1  UNL1        0.0095
@<TRIPOS>BOND
     1     8     9    1
     2     9    10    2
     3    10    11    1
     4    11    18    1
     5    18    19    2
     6    18    20   am
     7    20    21    1
     8    20    22    1
     9    11    12    2
    10    12    13    1
    11    13    14    2
    12    14    15    1
    13    15     1    1
    14     1     2    1
    15     2    23    1
    16    23    25    1
    17    25    26    1
    18    26    27    1
    19    26    29    1
    20    29    30   ar
    21    30    31   ar
    22    31    32   ar
    23    32    33   ar
    24    33    34    1
    25    33    35   ar
    26     2     3    2
    27     3     4    1
    28     4     5    2
    29     5     6    1
    30     6     7    2
    31    15    16    2
    32    16    17    1
    33    17     9    1
    34    17    13    1
    35     6     1    1
    36    35    29   ar
    37    23    24    1
    38    27    28    1
@<TRIPOS>MOLECULE
*****
 35 38 0 0 0
SMALL
GASTEIGER

@<TRIPOS>ATOM
      1 C          63.5952   88.3891   15.5227 C.3     1  UNL1        0.2246
      2 C          63.7955   86.9153   15.3283 C.2     1  UNL1        0.0436
      3 C          63.5487   85.9684   16.4652 C.2     1  UNL1        0.0288
      4 C          63.1016   86.4953   17.7966 C.2     1  UNL1        0.0896
      5 N          62.9013   87.9691   17.9910 N.am    1  UNL1       -0.1770
      6 C          63.1481   88.9159   16.8541 C.2     1  UNL1        0.2627
      7 O          62.9478   90.3897   17.0485 O.2     1  UNL1       -0.2719
      8 C          62.2657   90.2772   10.0682 C.3     1  UNL1        0.0312
      9 C          63.3506   90.9451   10.8600 C.2     1  UNL1        0.0125
     10 C          64.1068   92.0991   10.2714 C.2     1  UNL1        0.0007
     11 C          65.1916   92.7670   11.0631 C.2     1  UNL1        0.0566
     12 C          65.5203   92.2810   12.4436 C.2     1  UNL1        0.0513
     13 C          64.7642   91.1270   13.0323 C.2     1  UNL1        0.2235
     14 N          64.8647   90.4329   14.3582 N.2     1  UNL1       -0.0378
     15 C          63.8420   89.3360   14.3859 C.2     1  UNL1        0.3605
     16 N          63.1094   89.3521   13.0770 N.2     1  UNL1       -0.0547
     17 C          63.6793   90.4591   12.2405 C.3     1  UNL1        0.2975
     18 C          65.9478   93.9211   10.4744 C.2     1  UNL1        0.2492
     19 O          65.4028   95.3135   10.5930 O.2     1  UNL1       -0.2699
     20 N          67.2489   93.6826    9.7671 N.am    1  UNL1       -0.2726
     21 C          68.0050   94.8366    9.1785 C.3     1  UNL1        0.1152
     22 C          67.7938   92.2901    9.6485 C.3     1  UNL1        0.1152
     23 N          64.2426   86.3883   13.9970 N.pl3   1  UNL1       -0.3329
     24 H          64.5905   87.0067   13.3145 H       1  UNL1        0.1466
     25 C          64.1596   84.9192   13.7055 C.3     1  UNL1        0.1211
     26 C          62.9722   84.3654   12.9752 C.3     1  UNL1        0.1522
     27 O          61.9617   85.2957   12.3723 O.3     1  UNL1       -0.3783
     28 H          62.2242   86.2136   12.5442 H       1  UNL1        0.2109
     29 C          62.7953   82.8814   12.8479 C.ar    1  UNL1        0.0067
     30 C          62.4049   82.0671   14.0456 C.ar    1  UNL1       -0.0018
     31 C          62.2279   80.5830   13.9183 C.ar    1  UNL1        0.0006
     32 C          62.4414   79.9132   12.5932 C.ar    1  UNL1        0.0114
     33 C          62.8319   80.7275   11.3956 C.ar    1  UNL1        0.0574
     34 CL         63.0454   80.0576   10.0705 Cl      1  UNL1       -0.0823
     35 C          63.0088   82.2115   11.5229 C.ar    1  UNL1        0.0095
@<TRIPOS>BOND
     1     8     9    1
     2     9    10    2
     3    10    11    1
     4    11    18    1
     5    18    19    2
     6    18    20   am
     7    20    21    1
     8    20    22    1
     9    11    12    2
    10    12    13    1
    11    13    14    2
    12    14    15    1
    13    15     1    1
    14     1     2    1
    15     2    23    1
    16    23    25    1
    17    25    26    1
    18    26    27    1
    19    26    29    1
    20    29    30   ar
    21    30    31   ar
    22    31    32   ar
    23    32    33   ar
    24    33    34    1
    25    33    35   ar
    26     2     3    2
    27     3     4    1
    28     4     5    2
    29     5     6    1
    30     6     7    2
    31    15    16    2
    32    16    17    1
    33    17     9    1
    34    17    13    1
    35     6     1    1
    36    35    29   ar
    37    23    24    1
    38    27    28    1
@<TRIPOS>MOLECULE
*****
 35 38 0 0 0
SMALL
GASTEIGER

@<TRIPOS>ATOM
      1 C          62.9853   84.7243   13.2391 C.3     1  UNL1        0.2246
      2 C          62.9772   84.0656   11.8915 C.2     1  UNL1        0.0436
      3 C          62.6189   82.6142   11.7683 C.2     1  UNL1        0.0288
      4 C          62.2688   81.8215   12.9926 C.2     1  UNL1        0.0896
      5 N          62.2770   82.4801   14.3403 N.am    1  UNL1       -0.1770
      6 C          62.6352   83.9315   14.4634 C.2     1  UNL1        0.2627
      7 O          62.6434   84.5902   15.8111 O.2     1  UNL1       -0.2719
      8 C          62.8127   90.2302   11.0621 C.3     1  UNL1        0.0312
      9 C          63.5089   89.9481   12.3604 C.2     1  UNL1        0.0125
     10 C          64.1672   91.0639   13.1164 C.2     1  UNL1        0.0007
     11 C          64.8634   90.7818   14.4147 C.2     1  UNL1        0.0566
     12 C          64.9012   89.3838   14.9572 C.2     1  UNL1        0.0513
     13 C          64.2429   88.2680   14.2012 C.2     1  UNL1        0.2235
     14 N          64.1174   86.8005   14.4852 N.2     1  UNL1       -0.0378
     15 C          63.3436   86.1756   13.3624 C.2     1  UNL1        0.3605
     16 N          62.9909   87.2569   12.3844 N.2     1  UNL1       -0.0547
     17 C          63.5467   88.5501   12.9029 C.3     1  UNL1        0.2975
     18 C          65.5217   91.8978   15.1707 C.2     1  UNL1        0.2492
     19 O          64.8298   92.5157   16.3493 O.2     1  UNL1       -0.2699
     20 N          66.8721   92.3957   14.7479 N.am    1  UNL1       -0.2726
     21 C          67.5304   93.5115   15.5038 C.3     1  UNL1        0.1152
     22 C          67.5640   91.7777   13.5692 C.3     1  UNL1        0.1152
     23 N          63.3273   84.8582   10.6671 N.pl3   1  UNL1       -0.3329
     24 H          63.5976   85.8011   10.7518 H       1  UNL1        0.1466
     25 C          63.2656   84.2143    9.3138 C.3     1  UNL1        0.1211
     26 C          62.6315   84.9418    8.1654 C.3     1  UNL1        0.1522
     27 O          63.2039   84.8084    6.7853 O.3     1  UNL1       -0.3783
     28 H          63.9751   84.2206    6.8105 H       1  UNL1        0.2109
     29 C          61.4252   85.8026    8.3971 C.ar    1  UNL1        0.0067
     30 C          60.3313   85.8525    7.3720 C.ar    1  UNL1       -0.0018
     31 C          59.1250   86.7133    7.6037 C.ar    1  UNL1        0.0006
     32 C          59.0125   87.5243    8.8605 C.ar    1  UNL1        0.0114
     33 C          60.1064   87.4744    9.8856 C.ar    1  UNL1        0.0574
     34 CL         59.9939   88.2854   11.1425 Cl      1  UNL1       -0.0823
     35 C          61.3127   86.6136    9.6539 C.ar    1  UNL1        0.0095
@<TRIPOS>BOND
     1     8     9    1
     2     9    10    2
     3    10    11    1
     4    11    18    1
     5    18    19    2
     6    18    20   am
     7    20    21    1
     8    20    22    1
     9    11    12    2
    10    12    13    1
    11    13    14    2
    12    14    15    1
    13    15     1    1
    14     1     2    1
    15     2    23    1
    16    23    25    1
    17    25    26    1
    18    26    27    1
    19    26    29    1
    20    29    30   ar
    21    30    31   ar
    22    31    32   ar
    23    32    33   ar
    24    33    34    1
    25    33    35   ar
    26     2     3    2
    27     3     4    1
    28     4     5    2
    29     5     6    1
    30     6     7    2
    31    15    16    2
    32    16    17    1
    33    17     9    1
    34    17    13    1
    35     6     1    1
    36    35    29   ar
    37    23    24    1
    38    27    28    1
@<TRIPOS>MOLECULE
*****
 35 38 0 0 0
SMALL
GASTEIGER

@<TRIPOS>ATOM
      1 C          63.9512   89.7834   14.8978 C.3     1  UNL1        0.2246
      2 C          64.7728   90.9199   14.3654 C.2     1  UNL1        0.0436
      3 C          65.0413   92.1188   15.2260 C.2     1  UNL1        0.0288
      4 C          64.4885   92.1812   16.6190 C.2     1  UNL1        0.0896
      5 N          63.6669   91.0447   17.1514 N.am    1  UNL1       -0.1770
      6 C          63.3983   89.8458   16.2908 C.2     1  UNL1        0.2627
      7 O          62.5768   88.7094   16.8233 O.2     1  UNL1       -0.2719
      8 C          61.7485   87.4659    9.9117 C.3     1  UNL1        0.0312
      9 C          62.3925   86.5836   10.9398 C.2     1  UNL1        0.0125
     10 C          62.4819   85.1043   10.7086 C.2     1  UNL1        0.0007
     11 C          63.1259   84.2221   11.7366 C.2     1  UNL1        0.0566
     12 C          63.6806   84.8192   12.9959 C.2     1  UNL1        0.0513
     13 C          63.5912   86.2986   13.2271 C.2     1  UNL1        0.2235
     14 N          64.0457   87.1661   14.3632 N.2     1  UNL1       -0.0378
     15 C          63.6826   88.5845   14.0373 C.2     1  UNL1        0.3605
     16 N          63.0037   88.5936   12.6998 N.2     1  UNL1       -0.0547
     17 C          62.9472   87.1808   12.1990 C.3     1  UNL1        0.2975
     18 C          63.2152   82.7426   11.5054 C.2     1  UNL1        0.2492
     19 O          63.8361   82.2166   10.2453 O.2     1  UNL1       -0.2699
     20 N          62.6837   81.7893   12.5343 N.am    1  UNL1       -0.2726
     21 C          62.7730   80.3099   12.3031 C.3     1  UNL1        0.1152
     22 C          62.0628   82.3153   13.7943 C.3     1  UNL1        0.1152
     23 N          65.3257   90.8575   12.9724 N.pl3   1  UNL1       -0.3329
     24 H          65.9214   90.1183   12.7119 H       1  UNL1        0.1466
     25 C          64.9710   91.9215   11.9764 C.3     1  UNL1        0.1211
     26 C          65.8005   93.1678   11.8829 C.3     1  UNL1        0.1522
     27 O          65.7797   94.1681   13.0004 O.3     1  UNL1       -0.3783
     28 H          65.1839   93.8585   13.7005 H       1  UNL1        0.2109
     29 C          66.6507   93.4137   10.6719 C.ar    1  UNL1        0.0067
     30 C          67.5489   92.3301   10.1534 C.ar    1  UNL1       -0.0018
     31 C          68.3992   92.5760    8.9424 C.ar    1  UNL1        0.0006
     32 C          68.3512   93.9057    8.2498 C.ar    1  UNL1        0.0114
     33 C          67.4530   94.9894    8.7683 C.ar    1  UNL1        0.0574
     34 CL         67.4051   96.3190    8.0757 Cl      1  UNL1       -0.0823
     35 C          66.6028   94.7434    9.9793 C.ar    1  UNL1        0.0095
@<TRIPOS>BOND
     1     8     9    1
     2     9    10    2
     3    10    11    1
     4    11    18    1
     5    18    19    2
     6    18    20   am
     7    20    21    1
     8    20    22    1
     9    11    12    2
    10    12    13    1
    11    13    14    2
    12    14    15    1
    13    15     1    1
    14     1     2    1
    15     2    23    1
    16    23    25    1
    17    25    26    1
    18    26    27    1
    19    26    29    1
    20    29    30   ar
    21    30    31   ar
    22    31    32   ar
    23    32    33   ar
    24    33    34    1
    25    33    35   ar
    26     2     3    2
    27     3     4    1
    28     4     5    2
    29     5     6    1
    30     6     7    2
    31    15    16    2
    32    16    17    1
    33    17     9    1
    34    17    13    1
    35     6     1    1
    36    35    29   ar
    37    23    24    1
    38    27    28    1
@<TRIPOS>MOLECULE
*****
 35 38 0 0 0
SMALL
GASTEIGER

@<TRIPOS>ATOM
      1 C          64.4069   90.6409   14.5069 C.3     1  UNL1        0.2246
      2 C          65.5011   91.5437   14.0196 C.2     1  UNL1        0.0436
      3 C          66.0635   92.5977   14.9268 C.2     1  UNL1        0.0288
      4 C          65.5316   92.7488   16.3212 C.2     1  UNL1        0.0896
      5 N          64.4373   91.8460   16.8084 N.am    1  UNL1       -0.1770
      6 C          63.8750   90.7920   15.9012 C.2     1  UNL1        0.2627
      7 O          62.7807   89.8892   16.3884 O.2     1  UNL1       -0.2719
      8 C          63.4432   84.9217   13.3041 C.3     1  UNL1        0.0312
      9 C          62.9676   85.9869   12.3613 C.2     1  UNL1        0.0125
     10 C          62.2428   85.6068   11.1042 C.2     1  UNL1        0.0007
     11 C          61.7672   86.6720   10.1614 C.2     1  UNL1        0.0566
     12 C          62.0164   88.1175   10.4755 C.2     1  UNL1        0.0513
     13 C          62.7413   88.4976   11.7325 C.2     1  UNL1        0.2235
     14 N          63.1291   89.8292   12.3038 N.2     1  UNL1       -0.0378
     15 C          63.8445   89.5869   13.5998 C.2     1  UNL1        0.3605
     16 N          63.8987   88.1056   13.8294 N.2     1  UNL1       -0.0547
     17 C          63.2168   87.4323   12.6754 C.3     1  UNL1        0.2975
     18 C          61.0423   86.2918    8.9043 C.2     1  UNL1        0.2492
     19 O          59.6189   86.7190    8.7009 O.2     1  UNL1       -0.2699
     20 N          61.7409   85.4844    7.8507 N.am    1  UNL1       -0.2726
     21 C          61.0161   85.1043    6.5937 C.3     1  UNL1        0.1152
     22 C          63.1643   85.0572    8.0540 C.3     1  UNL1        0.1152
     23 N          66.0331   91.3926   12.6253 N.pl3   1  UNL1       -0.3329
     24 H          65.5518   90.8344   11.9727 H       1  UNL1        0.1466
     25 C          67.2983   92.0920   12.2253 C.3     1  UNL1        0.1211
     26 C          67.4494   92.6314   10.8339 C.3     1  UNL1        0.1522
     27 O          68.0159   91.7627    9.7501 O.3     1  UNL1       -0.3783
     28 H          68.2310   90.8899   10.1147 H       1  UNL1        0.2109
     29 C          67.0341   94.0395   10.5261 C.ar    1  UNL1        0.0067
     30 C          66.1542   94.7880   11.4829 C.ar    1  UNL1       -0.0018
     31 C          65.7388   96.1961   11.1752 C.ar    1  UNL1        0.0006
     32 C          66.2033   96.8558    9.9106 C.ar    1  UNL1        0.0114
     33 C          67.0832   96.1072    8.9538 C.ar    1  UNL1        0.0574
     34 CL         67.5478   96.7668    7.6893 Cl      1  UNL1       -0.0823
     35 C          67.4986   94.6991    9.2616 C.ar    1  UNL1        0.0095
@<TRIPOS>BOND
     1     8     9    1
     2     9    10    2
     3    10    11    1
     4    11    18    1
     5    18    19    2
     6    18    20   am
     7    20    21    1
     8    20    22    1
     9    11    12    2
    10    12    13    1
    11    13    14    2
    12    14    15    1
    13    15     1    1
    14     1     2    1
    15     2    23    1
    16    23    25    1
    17    25    26    1
    18    26    27    1
    19    26    29    1
    20    29    30   ar
    21    30    31   ar
    22    31    32   ar
    23    32    33   ar
    24    33    34    1
    25    33    35   ar
    26     2     3    2
    27     3     4    1
    28     4     5    2
    29     5     6    1
    30     6     7    2
    31    15    16    2
    32    16    17    1
    33    17     9    1
    34    17    13    1
    35     6     1    1
    36    35    29   ar
    37    23    24    1
    38    27    28    1
@<TRIPOS>MOLECULE
*****
 35 38 0 0 0
SMALL
GASTEIGER

@<TRIPOS>ATOM
      1 C          63.9889   90.2441   14.7333 C.3     1  UNL1        0.2246
      2 C          65.0365   91.2514   14.3620 C.2     1  UNL1        0.0436
      3 C          65.4872   92.2699   15.3668 C.2     1  UNL1        0.0288
      4 C          64.8903   92.2812   16.7428 C.2     1  UNL1        0.0896
      5 N          63.8427   91.2739   17.1142 N.am    1  UNL1       -0.1770
      6 C          63.3920   90.2554   16.1094 C.2     1  UNL1        0.2627
      7 O          62.3444   89.2481   16.4807 O.2     1  UNL1       -0.2719
      8 C          63.6175   84.5904   13.0064 C.3     1  UNL1        0.0312
      9 C          63.0359   85.6833   12.1594 C.2     1  UNL1        0.0125
     10 C          62.3548   85.3477   10.8658 C.2     1  UNL1        0.0007
     11 C          61.7733   86.4405   10.0188 C.2     1  UNL1        0.0566
     12 C          61.8728   87.8691   10.4654 C.2     1  UNL1        0.0513
     13 C          62.5539   88.2047   11.7590 C.2     1  UNL1        0.2235
     14 N          62.8028   89.5111   12.4528 N.2     1  UNL1       -0.0378
     15 C          63.5382   89.2256   13.7286 C.2     1  UNL1        0.3605
     16 N          63.7438   87.7428   13.8233 N.2     1  UNL1       -0.0547
     17 C          63.1355   87.1118   12.6060 C.3     1  UNL1        0.2975
     18 C          61.0921   86.1048    8.7252 C.2     1  UNL1        0.2492
     19 O          59.6746   86.5352    8.4902 O.2     1  UNL1       -0.2699
     20 N          61.8286   85.3388    7.6665 N.am    1  UNL1       -0.2726
     21 C          61.1475   85.0031    6.3729 C.3     1  UNL1        0.1152
     22 C          63.2462   84.9084    7.9014 C.3     1  UNL1        0.1152
     23 N          65.6334   91.2403   12.9859 N.pl3   1  UNL1       -0.3329
     24 H          66.3192   90.5736   12.7523 H       1  UNL1        0.1466
     25 C          65.1856   92.2447   11.9659 C.3     1  UNL1        0.1211
     26 C          65.9267   93.5398   11.8130 C.3     1  UNL1        0.1522
     27 O          65.9020   94.5532   12.9186 O.3     1  UNL1       -0.3783
     28 H          65.3661   94.2166   13.6538 H       1  UNL1        0.2109
     29 C          66.6927   93.8216   10.5544 C.ar    1  UNL1        0.0067
     30 C          67.5511   92.7538    9.9439 C.ar    1  UNL1       -0.0018
     31 C          68.3171   93.0355    8.6854 C.ar    1  UNL1        0.0006
     32 C          68.2245   94.3851    8.0372 C.ar    1  UNL1        0.0114
     33 C          67.3660   95.4529    8.6478 C.ar    1  UNL1        0.0574
     34 CL         67.2734   96.8025    7.9996 Cl      1  UNL1       -0.0823
     35 C          66.6001   95.1711    9.9063 C.ar    1  UNL1        0.0095
@<TRIPOS>BOND
     1     8     9    1
     2     9    10    2
     3    10    11    1
     4    11    18    1
     5    18    19    2
     6    18    20   am
     7    20    21    1
     8    20    22    1
     9    11    12    2
    10    12    13    1
    11    13    14    2
    12    14    15    1
    13    15     1    1
    14     1     2    1
    15     2    23    1
    16    23    25    1
    17    25    26    1
    18    26    27    1
    19    26    29    1
    20    29    30   ar
    21    30    31   ar
    22    31    32   ar
    23    32    33   ar
    24    33    34    1
    25    33    35   ar
    26     2     3    2
    27     3     4    1
    28     4     5    2
    29     5     6    1
    30     6     7    2
    31    15    16    2
    32    16    17    1
    33    17     9    1
    34    17    13    1
    35     6     1    1
    36    35    29   ar
    37    23    24    1
    38    27    28    1
@<TRIPOS>MOLECULE
*****
 35 38 0 0 0
SMALL
GASTEIGER

@<TRIPOS>ATOM
      1 C          63.3341   83.8302   13.4345 C.3     1  UNL1        0.2246
      2 C          62.7322   83.7608   12.0624 C.2     1  UNL1        0.0436
      3 C          62.6525   82.4464   11.3440 C.2     1  UNL1        0.0288
      4 C          63.1748   81.2014   11.9977 C.2     1  UNL1        0.0896
      5 N          63.7767   81.2709   13.3699 N.am    1  UNL1       -0.1770
      6 C          63.8564   82.5853   14.0882 C.2     1  UNL1        0.2627
      7 O          64.4583   82.6547   15.4604 O.2     1  UNL1       -0.2719
      8 C          62.5267   87.0132   18.3641 C.3     1  UNL1        0.0312
      9 C          63.0660   87.6593   17.1224 C.2     1  UNL1        0.0125
     10 C          63.4047   89.1205   17.1238 C.2     1  UNL1        0.0007
     11 C          63.9440   89.7665   15.8822 C.2     1  UNL1        0.0566
     12 C          64.1447   88.9513   14.6391 C.2     1  UNL1        0.0513
     13 C          63.8060   87.4901   14.6377 C.2     1  UNL1        0.2235
     14 N          63.8970   86.4397   13.5707 N.2     1  UNL1       -0.0378
     15 C          63.4138   85.1446   14.1530 C.2     1  UNL1        0.3605
     16 N          63.0243   85.3944   15.5798 N.2     1  UNL1       -0.0547
     17 C          63.2667   86.8440   15.8794 C.3     1  UNL1        0.2975
     18 C          64.2827   91.2279   15.8836 C.2     1  UNL1        0.2492
     19 O          63.3605   92.2109   16.5418 O.2     1  UNL1       -0.2699
     20 N          65.5436   91.7061   15.2267 N.am    1  UNL1       -0.2726
     21 C          65.8823   93.1674   15.2281 C.3     1  UNL1        0.1152
     22 C          66.4658   90.7231   14.5685 C.3     1  UNL1        0.1152
     23 N          62.2099   85.0057   11.4086 N.pl3   1  UNL1       -0.3329
     24 H          61.6885   85.6555   11.9331 H       1  UNL1        0.1466
     25 C          62.4819   85.2605    9.9557 C.3     1  UNL1        0.1211
     26 C          61.6987   86.3058    9.2181 C.3     1  UNL1        0.1522
     27 O          61.1991   86.0290    7.8311 O.3     1  UNL1       -0.3783
     28 H          61.4670   85.1361    7.5631 H       1  UNL1        0.2109
     29 C          61.4151   87.6278    9.8676 C.ar    1  UNL1        0.0067
     30 C          60.1361   87.8328   10.6239 C.ar    1  UNL1       -0.0018
     31 C          59.8524   89.1548   11.2734 C.ar    1  UNL1        0.0006
     32 C          60.8478   90.2719   11.1665 C.ar    1  UNL1        0.0114
     33 C          62.1268   90.0668   10.4102 C.ar    1  UNL1        0.0574
     34 CL         63.1222   91.1839   10.3033 Cl      1  UNL1       -0.0823
     35 C          62.4104   88.7448    9.7607 C.ar    1  UNL1        0.0095
@<TRIPOS>BOND
     1     8     9    1
     2     9    10    2
     3    10    11    1
     4    11    18    1
     5    18    19    2
     6    18    20   am
     7    20    21    1
     8    20    22    1
     9    11    12    2
    10    12    13    1
    11    13    14    2
    12    14    15    1
    13    15     1    1
    14     1     2    1
    15     2    23    1
    16    23    25    1
    17    25    26    1
    18    26    27    1
    19    26    29    1
    20    29    30   ar
    21    30    31   ar
    22    31    32   ar
    23    32    33   ar
    24    33    34    1
    25    33    35   ar
    26     2     3    2
    27     3     4    1
    28     4     5    2
    29     5     6    1
    30     6     7    2
    31    15    16    2
    32    16    17    1
    33    17     9    1
    34    17    13    1
    35     6     1    1
    36    35    29   ar
    37    23    24    1
    38    27    28    1
@<TRIPOS>MOLECULE
*****
 35 38 0 0 0
SMALL
GASTEIGER

@<TRIPOS>ATOM
      1 C          63.8368   90.7221   13.7102 C.3     1  UNL1        0.2246
      2 C          63.7903   90.4263   15.1800 C.2     1  UNL1        0.0436
      3 C          64.6571   91.2002   16.1286 C.2     1  UNL1        0.0288
      4 C          65.5704   92.2699   15.6074 C.2     1  UNL1        0.0896
      5 N          65.6169   92.5658   14.1376 N.am    1  UNL1       -0.1770
      6 C          64.7500   91.7918   13.1890 C.2     1  UNL1        0.2627
      7 O          64.7965   92.0877   11.7192 O.2     1  UNL1       -0.2719
      8 C          58.4631   88.8333   12.0853 C.3     1  UNL1        0.0312
      9 C          59.6743   88.4603   11.2829 C.2     1  UNL1        0.0125
     10 C          59.5292   87.6036   10.0602 C.2     1  UNL1        0.0007
     11 C          60.7403   87.2306    9.2578 C.2     1  UNL1        0.0566
     12 C          62.0967   87.7143    9.6780 C.2     1  UNL1        0.0513
     13 C          62.2417   88.5709   10.9007 C.2     1  UNL1        0.2235
     14 N          63.4404   89.1916   11.5549 N.2     1  UNL1       -0.0378
     15 C          62.9700   89.9483   12.7616 C.2     1  UNL1        0.3605
     16 N          61.4806   89.7952   12.8533 N.2     1  UNL1       -0.0547
     17 C          61.0305   88.9440   11.7032 C.3     1  UNL1        0.2975
     18 C          60.5953   86.3739    8.0350 C.2     1  UNL1        0.2492
     19 O          59.3350   86.4320    7.2237 O.2     1  UNL1       -0.2699
     20 N          61.7105   85.4590    7.6236 N.am    1  UNL1       -0.2726
     21 C          61.5655   84.6023    6.4009 C.3     1  UNL1        0.1152
     22 C          62.9708   85.4008    8.4349 C.3     1  UNL1        0.1152
     23 N          62.8771   89.3566   15.7013 N.pl3   1  UNL1       -0.3329
     24 H          62.0611   89.1205   15.2036 H       1  UNL1        0.1466
     25 C          63.2070   88.6467   16.9808 C.3     1  UNL1        0.1211
     26 C          62.8692   87.1941   17.1412 C.3     1  UNL1        0.1522
     27 O          62.0359   86.7417   18.3035 O.3     1  UNL1       -0.3783
     28 H          61.8008   87.5077   18.8503 H       1  UNL1        0.2109
     29 C          63.3647   86.1938   16.1392 C.ar    1  UNL1        0.0067
     30 C          64.6101   86.4748   15.3518 C.ar    1  UNL1       -0.0018
     31 C          65.1056   85.4745   14.3498 C.ar    1  UNL1        0.0006
     32 C          64.3557   84.1932   14.1353 C.ar    1  UNL1        0.0114
     33 C          63.1103   83.9123   14.9227 C.ar    1  UNL1        0.0574
     34 CL         62.3604   82.6310   14.7081 Cl      1  UNL1       -0.0823
     35 C          62.6148   84.9126   15.9247 C.ar    1  UNL1        0.0095
@<TRIPOS>BOND
     1     8     9    1
     2     9    10    2
     3    10    11    1
     4    11    18    1
     5    18    19    2
     6    18    20   am
     7    20    21    1
     8    20    22    1
     9    11    12    2
    10    12    13    1
    11    13    14    2
    12    14    15    1
    13    15     1    1
    14     1     2    1
    15     2    23    1
    16    23    25    1
    17    25    26    1
    18    26    27    1
    19    26    29    1
    20    29    30   ar
    21    30    31   ar
    22    31    32   ar
    23    32    33   ar
    24    33    34    1
    25    33    35   ar
    26     2     3    2
    27     3     4    1
    28     4     5    2
    29     5     6    1
    30     6     7    2
    31    15    16    2
    32    16    17    1
    33    17     9    1
    34    17    13    1
    35     6     1    1
    36    35    29   ar
    37    23    24    1
    38    27    28    1
