@<TRIPOS>MOLECULE
*****
 39 43 0 0 0
SMALL
GASTEIGER

@<TRIPOS>ATOM
      1 N          63.2206   89.2775   16.0950 N.ar    1  UNL1       -0.2495
      2 C          62.2516   88.8565   15.0301 C.ar    1  UNL1        0.0963
      3 C          62.6521   89.5251   13.7484 C.ar    1  UNL1        0.0351
      4 C          63.8685   90.3592   14.0211 C.ar    1  UNL1        0.1020
      5 N          64.2199   90.2062   15.4713 N.ar    1  UNL1       -0.1693
      6 C          61.9578   89.3842   12.4262 C.2     1  UNL1        0.0003
      7 C          61.1965   90.5419   11.8517 C.2     1  UNL1        0.0472
      8 C          60.5023   90.4011   10.5295 C.2     1  UNL1        0.2354
      9 N          60.5694   89.1025    9.7818 N.2     1  UNL1       -0.0341
     10 C          61.3307   87.9448   10.3563 C.2     1  UNL1        0.3592
     11 N          61.5710   86.5524    9.8525 N.2     1  UNL1       -0.0382
     12 C          62.4138   85.8328   10.8634 C.2     1  UNL1        0.1897
     13 C          62.6943   86.7804   11.9919 C.2     1  UNL1        0.0369
     14 C          62.0249   88.0856   11.6785 C.3     1  UNL1        0.1600
     15 C          62.8921   84.4146   10.7634 C.ar    1  UNL1        0.0424
     16 C          63.7269   83.9854    9.5934 C.ar    1  UNL1        0.0037
     17 C          64.2052   82.5672    9.4934 C.ar    1  UNL1       -0.0002
     18 C          63.8487   81.5783   10.5633 C.ar    1  UNL1       -0.0029
     19 C          63.0139   82.0075   11.7333 C.ar    1  UNL1       -0.0060
     20 C          62.5356   83.4256   11.8334 C.ar    1  UNL1        0.0008
     21 C          62.6574   81.0184   12.8033 C.3     1  UNL1        0.0992
     22 N          61.7581   81.4265   13.9323 N.3     1  UNL1       -0.2665
     23 C          60.4244   80.7625   14.1063 C.3     1  UNL1        0.0899
     24 C          62.1925   82.4985   14.8873 C.3     1  UNL1        0.0899
     25 C          64.6044   91.1990   13.0195 C.ar    1  UNL1        0.0195
     26 C          65.8669   91.9054   13.4161 C.ar    1  UNL1        0.0028
     27 C          66.6028   92.7451   12.4145 C.ar    1  UNL1        0.0148
     28 C          66.0763   92.8785   11.0162 C.ar    1  UNL1        0.0516
     29 C          64.8139   92.1721   10.6197 C.ar    1  UNL1        0.0148
     30 C          64.0780   91.3324   11.6213 C.ar    1  UNL1        0.0028
     31 N          66.8122   93.7182   10.0146 N.am    1  UNL1       -0.2681
     32 C          66.1168   94.8642    9.3413 C.2     1  UNL1        0.3078
     33 O          64.6856   95.1703    9.6695 O.2     1  UNL1       -0.2522
     34 N          66.8526   95.7039    8.3396 N.am    1  UNL1       -0.2605
     35 C          66.1573   96.8498    7.6663 C.3     1  UNL1        0.1165
     36 C          68.2839   95.3977    8.0113 C.3     1  UNL1        0.1165
     37 H          67.7516   93.5173    9.7991 H       1  UNL1        0.1564
     38 C          62.6743   87.4871   17.8966 C.3     1  UNL1        0.0284
     39 C          63.1949   88.8456   17.5312 C.3     1  UNL1        0.1276
@<TRIPOS>BOND
     1    38    39    1
     2    39     1    1
     3     1     2   ar
     4     2     3   ar
     5     3     6    1
     6     6     7    2
     7     7     8    1
     8     8     9    2
     9     9    10    1
    10    10    11    2
    11    11    12    1
    12    12    15    1
    13    15    16   ar
    14    16    17   ar
    15    17    18   ar
    16    18    19   ar
    17    19    21    1
    18    21    22    1
    19    22    23    1
    20    22    24    1
    21    19    20   ar
    22    12    13    2
    23    13    14    1
    24     3     4   ar
    25     4    25    1
    26    25    26   ar
    27    26    27   ar
    28    27    28   ar
    29    28    31    1
    30    31    32   am
    31    32    33    2
    32    32    34   am
    33    34    35    1
    34    34    36    1
    35    28    29   ar
    36    29    30   ar
    37     4     5   ar
    38     5     1   ar
    39    14     6    1
    40    30    25   ar
    41    14    10    1
    42    20    15   ar
    43    31    37    1
@<TRIPOS>MOLECULE
*****
 39 43 0 0 0
SMALL
GASTEIGER

@<TRIPOS>ATOM
      1 N          59.8072   89.0420    7.1660 N.ar    1  UNL1       -0.2495
      2 C          59.4897   89.6713    8.4901 C.ar    1  UNL1        0.0963
      3 C          60.1057   88.8254    9.5649 C.ar    1  UNL1        0.0351
      4 C          60.8038   87.6734    8.9051 C.ar    1  UNL1        0.1020
      5 N          60.6194   87.8072    7.4225 N.ar    1  UNL1       -0.1693
      6 C          60.0358   89.0860   11.0405 C.2     1  UNL1        0.0003
      7 C          58.8078   88.7033   11.8123 C.2     1  UNL1        0.0472
      8 C          58.7378   88.9638   13.2878 C.2     1  UNL1        0.2354
      9 N          59.8958   89.6070   13.9915 N.2     1  UNL1       -0.0341
     10 C          61.1238   89.9896   13.2197 C.2     1  UNL1        0.3592
     11 N          62.4124   90.6335   13.6385 N.2     1  UNL1       -0.0382
     12 C          63.2787   90.7708   12.4217 C.2     1  UNL1        0.1897
     13 C          62.5255   90.2119   11.2510 C.2     1  UNL1        0.0369
     14 C          61.1938   89.7291   11.7442 C.3     1  UNL1        0.1600
     15 C          64.6563   91.3631   12.3824 C.ar    1  UNL1        0.0424
     16 C          65.5521   91.2583   13.5809 C.ar    1  UNL1        0.0037
     17 C          66.9297   91.8505   13.5417 C.ar    1  UNL1       -0.0002
     18 C          67.4114   92.5475   12.3039 C.ar    1  UNL1       -0.0029
     19 C          66.5155   92.6523   11.1054 C.ar    1  UNL1       -0.0060
     20 C          65.1380   92.0601   11.1446 C.ar    1  UNL1        0.0008
     21 C          66.9973   93.3494    9.8676 C.3     1  UNL1        0.0992
     22 N          66.9081   94.8432    9.7652 N.3     1  UNL1       -0.2665
     23 C          67.3893   95.5402    8.5273 C.3     1  UNL1        0.0899
     24 C          66.3377   95.6401   10.9009 C.3     1  UNL1        0.0899
     25 C          61.5546   86.5796    9.6049 C.ar    1  UNL1        0.0195
     26 C          62.4795   85.6894    8.8288 C.ar    1  UNL1        0.0028
     27 C          63.2303   84.5956    9.5287 C.ar    1  UNL1        0.0148
     28 C          63.0563   84.3918   11.0046 C.ar    1  UNL1        0.0516
     29 C          62.1315   85.2820   11.7806 C.ar    1  UNL1        0.0148
     30 C          61.3807   86.3758   11.0808 C.ar    1  UNL1        0.0028
     31 N          63.8071   83.2980   11.7044 N.am    1  UNL1       -0.2681
     32 C          63.0589   82.1740   12.3578 C.2     1  UNL1        0.3078
     33 O          61.5600   82.1439   12.3113 O.2     1  UNL1       -0.2522
     34 N          63.8097   81.0802   13.0577 N.am    1  UNL1       -0.2605
     35 C          63.0615   79.9562   13.7110 C.3     1  UNL1        0.1165
     36 C          65.3086   81.1103   13.1042 C.3     1  UNL1        0.1165
     37 H          64.7910   83.3178   11.7350 H       1  UNL1        0.1564
     38 C          58.6649   90.8676    5.7126 C.3     1  UNL1        0.0284
     39 C          59.3864   89.5570    5.8215 C.3     1  UNL1        0.1276
@<TRIPOS>BOND
     1    38    39    1
     2    39     1    1
     3     1     2   ar
     4     2     3   ar
     5     3     6    1
     6     6     7    2
     7     7     8    1
     8     8     9    2
     9     9    10    1
    10    10    11    2
    11    11    12    1
    12    12    15    1
    13    15    16   ar
    14    16    17   ar
    15    17    18   ar
    16    18    19   ar
    17    19    21    1
    18    21    22    1
    19    22    23    1
    20    22    24    1
    21    19    20   ar
    22    12    13    2
    23    13    14    1
    24     3     4   ar
    25     4    25    1
    26    25    26   ar
    27    26    27   ar
    28    27    28   ar
    29    28    31    1
    30    31    32   am
    31    32    33    2
    32    32    34   am
    33    34    35    1
    34    34    36    1
    35    28    29   ar
    36    29    30   ar
    37     4     5   ar
    38     5     1   ar
    39    14     6    1
    40    30    25   ar
    41    14    10    1
    42    20    15   ar
    43    31    37    1
@<TRIPOS>MOLECULE
*****
 39 43 0 0 0
SMALL
GASTEIGER

@<TRIPOS>ATOM
      1 N          59.7097   88.9528    7.1267 N.ar    1  UNL1       -0.2495
      2 C          59.4542   89.6189    8.4462 C.ar    1  UNL1        0.0963
      3 C          60.1061   88.7938    9.5159 C.ar    1  UNL1        0.0351
      4 C          60.7646   87.6179    8.8575 C.ar    1  UNL1        0.1020
      5 N          60.5196   87.7161    7.3809 N.ar    1  UNL1       -0.1693
      6 C          60.1006   89.0924   10.9859 C.2     1  UNL1        0.0003
      7 C          58.9232   88.6971   11.8270 C.2     1  UNL1        0.0472
      8 C          58.9175   88.9956   13.2970 C.2     1  UNL1        0.2354
      9 N          60.0893   89.6895   13.9258 N.2     1  UNL1       -0.0341
     10 C          61.2667   90.0848   13.0847 C.2     1  UNL1        0.3592
     11 N          62.5549   90.7751   13.4225 N.2     1  UNL1       -0.0382
     12 C          63.3567   90.9032   12.1612 C.2     1  UNL1        0.1897
     13 C          62.5640   90.2920   11.0440 C.2     1  UNL1        0.0369
     14 C          61.2723   89.7862   11.6148 C.3     1  UNL1        0.1600
     15 C          64.7131   91.5320   12.0387 C.ar    1  UNL1        0.0424
     16 C          65.0941   92.2538   10.7802 C.ar    1  UNL1        0.0037
     17 C          66.4504   92.8826   10.6576 C.ar    1  UNL1       -0.0002
     18 C          67.4256   92.7896   11.7935 C.ar    1  UNL1       -0.0029
     19 C          67.0445   92.0678   13.0520 C.ar    1  UNL1       -0.0060
     20 C          65.6882   91.4390   13.1746 C.ar    1  UNL1        0.0008
     21 C          68.0198   91.9749   14.1879 C.3     1  UNL1        0.0992
     22 N          67.8413   92.8372   15.4021 N.3     1  UNL1       -0.2665
     23 C          66.5836   92.7388   16.2135 C.3     1  UNL1        0.0899
     24 C          68.9204   93.7980   15.8050 C.3     1  UNL1        0.0899
     25 C          61.5331   86.5339    9.5535 C.ar    1  UNL1        0.0195
     26 C          61.3816   86.3387   11.0331 C.ar    1  UNL1        0.0028
     27 C          62.1501   85.2547   11.7291 C.ar    1  UNL1        0.0148
     28 C          63.0702   84.3660   10.9457 C.ar    1  UNL1        0.0516
     29 C          63.2217   84.5613    9.4662 C.ar    1  UNL1        0.0148
     30 C          62.4532   85.6452    8.7702 C.ar    1  UNL1        0.0028
     31 N          63.8387   83.2821   11.6416 N.am    1  UNL1       -0.2681
     32 C          63.1072   82.1815   12.3516 C.2     1  UNL1        0.3078
     33 O          61.6075   82.1650   12.3655 O.2     1  UNL1       -0.2522
     34 N          63.8758   81.0976   13.0476 N.am    1  UNL1       -0.2605
     35 C          63.1444   79.9971   13.7575 C.3     1  UNL1        0.1165
     36 C          65.3756   81.1142   13.0336 C.3     1  UNL1        0.1165
     37 H          64.8231   83.2929   11.6325 H       1  UNL1        0.1564
     38 C          58.9226   90.8906    5.5854 C.3     1  UNL1        0.0284
     39 C          59.2382   89.4382    5.7880 C.3     1  UNL1        0.1276
@<TRIPOS>BOND
     1    38    39    1
     2    39     1    1
     3     1     2   ar
     4     2     3   ar
     5     3     6    1
     6     6     7    2
     7     7     8    1
     8     8     9    2
     9     9    10    1
    10    10    11    2
    11    11    12    1
    12    12    15    1
    13    15    16   ar
    14    16    17   ar
    15    17    18   ar
    16    18    19   ar
    17    19    21    1
    18    21    22    1
    19    22    23    1
    20    22    24    1
    21    19    20   ar
    22    12    13    2
    23    13    14    1
    24     3     4   ar
    25     4    25    1
    26    25    26   ar
    27    26    27   ar
    28    27    28   ar
    29    28    31    1
    30    31    32   am
    31    32    33    2
    32    32    34   am
    33    34    35    1
    34    34    36    1
    35    28    29   ar
    36    29    30   ar
    37     4     5   ar
    38     5     1   ar
    39    14     6    1
    40    30    25   ar
    41    14    10    1
    42    20    15   ar
    43    31    37    1
@<TRIPOS>MOLECULE
*****
 39 43 0 0 0
SMALL
GASTEIGER

@<TRIPOS>ATOM
      1 N          68.2261   92.2272   13.8755 N.ar    1  UNL1       -0.2495
      2 C          67.3706   91.9104   15.0662 C.ar    1  UNL1        0.0963
      3 C          66.0165   91.5001   14.5680 C.ar    1  UNL1        0.0351
      4 C          66.0352   91.5634   13.0695 C.ar    1  UNL1        0.1020
      5 N          67.4008   92.0127   12.6415 N.ar    1  UNL1       -0.1693
      6 C          64.8487   91.0974   15.4191 C.2     1  UNL1        0.0003
      7 C          64.1786   92.1093   16.3004 C.2     1  UNL1        0.0472
      8 C          63.0109   91.7066   17.1514 C.2     1  UNL1        0.2354
      9 N          62.5134   90.2919   17.1211 N.2     1  UNL1       -0.0341
     10 C          63.1835   89.2799   16.2397 C.2     1  UNL1        0.3592
     11 N          62.9173   87.8229   16.0021 N.2     1  UNL1       -0.0382
     12 C          63.9206   87.3252   15.0042 C.2     1  UNL1        0.1897
     13 C          64.8067   88.4746   14.6251 C.2     1  UNL1        0.0369
     14 C          64.3512   89.6826   15.3887 C.3     1  UNL1        0.1600
     15 C          64.0202   85.9241   14.4778 C.ar    1  UNL1        0.0424
     16 C          64.8177   84.8970   15.2254 C.ar    1  UNL1        0.0037
     17 C          64.9174   83.4959   14.6991 C.ar    1  UNL1       -0.0002
     18 C          64.2195   83.1220   13.4251 C.ar    1  UNL1       -0.0029
     19 C          63.4220   84.1492   12.6774 C.ar    1  UNL1       -0.0060
     20 C          63.3223   85.5502   13.2038 C.ar    1  UNL1        0.0008
     21 C          62.7241   83.7752   11.4033 C.3     1  UNL1        0.0992
     22 N          63.5041   83.6576   10.1276 N.3     1  UNL1       -0.2665
     23 C          64.5106   82.5577    9.9625 C.3     1  UNL1        0.0899
     24 C          63.2777   84.6399    9.0168 C.3     1  UNL1        0.0899
     25 C          64.8894   91.2350   12.1588 C.ar    1  UNL1        0.0195
     26 C          63.9010   90.1762   12.5489 C.ar    1  UNL1        0.0028
     27 C          62.7552   89.8478   11.6382 C.ar    1  UNL1        0.0148
     28 C          62.5978   90.5781   10.3375 C.ar    1  UNL1        0.0516
     29 C          63.5862   91.6368    9.9474 C.ar    1  UNL1        0.0148
     30 C          64.7319   91.9652   10.8581 C.ar    1  UNL1        0.0028
     31 N          61.4520   90.2497    9.4268 N.am    1  UNL1       -0.2681
     32 C          60.9947   88.8287    9.2794 C.2     1  UNL1        0.3078
     33 O          61.6830   87.7362   10.0426 O.2     1  UNL1       -0.2522
     34 N          59.8489   88.5003    8.3687 N.am    1  UNL1       -0.2605
     35 C          59.3915   87.0793    8.2213 C.3     1  UNL1        0.1165
     36 C          59.1605   89.5928    7.6055 C.3     1  UNL1        0.1165
     37 H          61.0002   90.9667    8.9258 H       1  UNL1        0.1564
     38 C          70.2415   93.2120   15.1864 C.3     1  UNL1        0.0284
     39 C          69.6560   92.6791   13.9124 C.3     1  UNL1        0.1276
@<TRIPOS>BOND
     1    38    39    1
     2    39     1    1
     3     1     2   ar
     4     2     3   ar
     5     3     6    1
     6     6     7    2
     7     7     8    1
     8     8     9    2
     9     9    10    1
    10    10    11    2
    11    11    12    1
    12    12    15    1
    13    15    16   ar
    14    16    17   ar
    15    17    18   ar
    16    18    19   ar
    17    19    21    1
    18    21    22    1
    19    22    23    1
    20    22    24    1
    21    19    20   ar
    22    12    13    2
    23    13    14    1
    24     3     4   ar
    25     4    25    1
    26    25    26   ar
    27    26    27   ar
    28    27    28   ar
    29    28    31    1
    30    31    32   am
    31    32    33    2
    32    32    34   am
    33    34    35    1
    34    34    36    1
    35    28    29   ar
    36    29    30   ar
    37     4     5   ar
    38     5     1   ar
    39    14     6    1
    40    30    25   ar
    41    14    10    1
    42    20    15   ar
    43    31    37    1
@<TRIPOS>MOLECULE
*****
 39 43 0 0 0
SMALL
GASTEIGER

@<TRIPOS>ATOM
      1 N          63.0802   84.5772   10.4332 N.ar    1  UNL1       -0.2495
      2 C          62.6862   85.4103   11.6167 C.ar    1  UNL1        0.0963
      3 C          61.8217   86.5336   11.1258 C.ar    1  UNL1        0.0351
      4 C          61.6815   86.3948    9.6389 C.ar    1  UNL1        0.1020
      5 N          62.4592   85.1857    9.2108 N.ar    1  UNL1       -0.1693
      6 C          61.2057   87.6072   11.9732 C.2     1  UNL1        0.0003
      7 C          59.7419   87.5594   12.2972 C.2     1  UNL1        0.0472
      8 C          59.1258   88.6329   13.1445 C.2     1  UNL1        0.2354
      9 N          59.9736   89.7542   13.6678 N.2     1  UNL1       -0.0341
     10 C          61.4374   89.8020   13.3438 C.2     1  UNL1        0.3592
     11 N          62.5163   90.7758   13.7151 N.2     1  UNL1       -0.0382
     12 C          63.7991   90.3040   13.0972 C.2     1  UNL1        0.1897
     13 C          63.5131   89.0387   12.3441 C.2     1  UNL1        0.0369
     14 C          62.0534   88.7285   12.4965 C.3     1  UNL1        0.1600
     15 C          65.1338   90.9791   13.2123 C.ar    1  UNL1        0.0424
     16 C          65.8721   90.9634   14.5179 C.ar    1  UNL1        0.0037
     17 C          67.2066   91.6383   14.6331 C.ar    1  UNL1       -0.0002
     18 C          67.8029   92.3290   13.4425 C.ar    1  UNL1       -0.0029
     19 C          67.0646   92.3446   12.1369 C.ar    1  UNL1       -0.0060
     20 C          65.7301   91.6697   12.0218 C.ar    1  UNL1        0.0008
     21 C          67.6610   93.0353   10.9463 C.3     1  UNL1        0.0992
     22 N          67.1949   94.4091   10.5648 N.3     1  UNL1       -0.2665
     23 C          66.2710   95.1664   11.4719 C.3     1  UNL1        0.0899
     24 C          67.6527   95.0255    9.2762 C.3     1  UNL1        0.0899
     25 C          60.9005   87.3051    8.7381 C.ar    1  UNL1        0.0195
     26 C          60.8975   88.7844    8.9870 C.ar    1  UNL1        0.0028
     27 C          60.1166   89.6948    8.0862 C.ar    1  UNL1        0.0148
     28 C          59.3387   89.1260    6.9366 C.ar    1  UNL1        0.0516
     29 C          59.3418   87.6468    6.6879 C.ar    1  UNL1        0.0148
     30 C          60.1227   86.7365    7.5886 C.ar    1  UNL1        0.0028
     31 N          58.5578   90.0364    6.0359 N.am    1  UNL1       -0.2681
     32 C          59.2758   90.9375    5.0752 C.2     1  UNL1        0.3078
     33 O          60.7745   90.9281    5.0154 O.2     1  UNL1       -0.2522
     34 N          58.4949   91.8478    4.1745 N.am    1  UNL1       -0.2605
     35 C          59.2128   92.7488    3.2139 C.3     1  UNL1        0.1165
     36 C          56.9961   91.8572    4.2344 C.3     1  UNL1        0.1165
     37 H          57.5741   90.0426    6.0752 H       1  UNL1        0.1564
     38 C          64.2729   82.7008   11.7772 C.3     1  UNL1        0.0284
     39 C          63.9435   83.3511   10.4662 C.3     1  UNL1        0.1276
@<TRIPOS>BOND
     1    38    39    1
     2    39     1    1
     3     1     2   ar
     4     2     3   ar
     5     3     6    1
     6     6     7    2
     7     7     8    1
     8     8     9    2
     9     9    10    1
    10    10    11    2
    11    11    12    1
    12    12    15    1
    13    15    16   ar
    14    16    17   ar
    15    17    18   ar
    16    18    19   ar
    17    19    21    1
    18    21    22    1
    19    22    23    1
    20    22    24    1
    21    19    20   ar
    22    12    13    2
    23    13    14    1
    24     3     4   ar
    25     4    25    1
    26    25    26   ar
    27    26    27   ar
    28    27    28   ar
    29    28    31    1
    30    31    32   am
    31    32    33    2
    32    32    34   am
    33    34    35    1
    34    34    36    1
    35    28    29   ar
    36    29    30   ar
    37     4     5   ar
    38     5     1   ar
    39    14     6    1
    40    30    25   ar
    41    14    10    1
    42    20    15   ar
    43    31    37    1
@<TRIPOS>MOLECULE
*****
 39 43 0 0 0
SMALL
GASTEIGER

@<TRIPOS>ATOM
      1 N          63.1341   90.8569   11.0773 N.ar    1  UNL1       -0.2495
      2 C          61.9468   90.7373   10.1686 C.ar    1  UNL1        0.0963
      3 C          61.6202   89.2807   10.0217 C.ar    1  UNL1        0.0351
      4 C          62.6057   88.4999   10.8397 C.ar    1  UNL1        0.1020
      5 N          63.5414   89.4740   11.4922 N.ar    1  UNL1       -0.1693
      6 C          60.5040   88.7057    9.2009 C.2     1  UNL1        0.0003
      7 C          59.6666   87.5895    9.7511 C.2     1  UNL1        0.0472
      8 C          58.5504   87.0145    8.9303 C.2     1  UNL1        0.2354
      9 N          58.2717   87.5558    7.5595 N.2     1  UNL1       -0.0341
     10 C          59.1092   88.6721    7.0094 C.2     1  UNL1        0.3592
     11 N          59.0710   89.4046    5.7009 N.2     1  UNL1       -0.0382
     12 C          60.1636   90.4322    5.7130 C.2     1  UNL1        0.1897
     13 C          60.8770   90.3348    7.0289 C.2     1  UNL1        0.0369
     14 C          60.2253   89.2470    7.8301 C.3     1  UNL1        0.1600
     15 C          60.4863   91.3893    4.6038 C.ar    1  UNL1        0.0424
     16 C          59.4412   92.3457    4.1109 C.ar    1  UNL1        0.0037
     17 C          59.7638   93.3027    3.0018 C.ar    1  UNL1       -0.0002
     18 C          61.1314   93.3033    2.3857 C.ar    1  UNL1       -0.0029
     19 C          62.1764   92.3468    2.8787 C.ar    1  UNL1       -0.0060
     20 C          61.8539   91.3898    3.9878 C.ar    1  UNL1        0.0008
     21 C          63.5441   92.3474    2.2626 C.3     1  UNL1        0.0992
     22 N          64.0161   93.5403    1.4854 N.3     1  UNL1       -0.2665
     23 C          63.8715   93.5680   -0.0073 C.3     1  UNL1        0.0899
     24 C          64.6327   94.7056    2.2010 C.3     1  UNL1        0.0899
     25 C          62.6482   87.0072   10.9807 C.ar    1  UNL1        0.0195
     26 C          62.7533   86.3851   12.3416 C.ar    1  UNL1        0.0028
     27 C          62.7958   84.8923   12.4825 C.ar    1  UNL1        0.0148
     28 C          62.7331   84.0216   11.2626 C.ar    1  UNL1        0.0516
     29 C          62.6279   84.6438    9.9018 C.ar    1  UNL1        0.0148
     30 C          62.5855   86.1365    9.7609 C.ar    1  UNL1        0.0028
     31 N          62.7755   82.5289   11.4035 N.am    1  UNL1       -0.2681
     32 C          62.4461   81.8902   12.7202 C.2     1  UNL1        0.3078
     33 O          62.0742   82.7442   13.8959 O.2     1  UNL1       -0.2522
     34 N          62.4885   80.3975   12.8612 N.am    1  UNL1       -0.2605
     35 C          62.1591   79.7588   14.1778 C.3     1  UNL1        0.1165
     36 C          62.8604   79.5434   11.6854 C.3     1  UNL1        0.1165
     37 H          63.0196   81.9683   10.6319 H       1  UNL1        0.1564
     38 C          65.1190   92.5243   10.9037 C.3     1  UNL1        0.0284
     39 C          63.7977   92.1348   11.4975 C.3     1  UNL1        0.1276
@<TRIPOS>BOND
     1    38    39    1
     2    39     1    1
     3     1     2   ar
     4     2     3   ar
     5     3     6    1
     6     6     7    2
     7     7     8    1
     8     8     9    2
     9     9    10    1
    10    10    11    2
    11    11    12    1
    12    12    15    1
    13    15    16   ar
    14    16    17   ar
    15    17    18   ar
    16    18    19   ar
    17    19    21    1
    18    21    22    1
    19    22    23    1
    20    22    24    1
    21    19    20   ar
    22    12    13    2
    23    13    14    1
    24     3     4   ar
    25     4    25    1
    26    25    26   ar
    27    26    27   ar
    28    27    28   ar
    29    28    31    1
    30    31    32   am
    31    32    33    2
    32    32    34   am
    33    34    35    1
    34    34    36    1
    35    28    29   ar
    36    29    30   ar
    37     4     5   ar
    38     5     1   ar
    39    14     6    1
    40    30    25   ar
    41    14    10    1
    42    20    15   ar
    43    31    37    1
@<TRIPOS>MOLECULE
*****
 39 43 0 0 0
SMALL
GASTEIGER

@<TRIPOS>ATOM
      1 N          65.6697   91.7530   14.8703 N.ar    1  UNL1       -0.2495
      2 C          65.3082   90.6556   15.8267 C.ar    1  UNL1        0.0963
      3 C          64.2720   89.7917   15.1709 C.ar    1  UNL1        0.0351
      4 C          63.9932   90.3553   13.8090 C.ar    1  UNL1        0.1020
      5 N          64.8569   91.5674   13.6232 N.ar    1  UNL1       -0.1693
      6 C          63.6279   88.5774   15.7714 C.2     1  UNL1        0.0003
      7 C          63.1625   88.6030   17.1972 C.2     1  UNL1        0.0472
      8 C          62.5183   87.3888   17.7977 C.2     1  UNL1        0.2354
      9 N          62.3396   86.1490   16.9726 N.2     1  UNL1       -0.0341
     10 C          62.8050   86.1234   15.5468 C.2     1  UNL1        0.3592
     11 N          62.7633   85.0533   14.4964 N.2     1  UNL1       -0.0382
     12 C          63.3816   85.6062   13.2467 C.2     1  UNL1        0.1897
     13 C          63.8055   87.0180   13.5247 C.2     1  UNL1        0.0369
     14 C          63.4491   87.3376   14.9462 C.3     1  UNL1        0.1600
     15 C          63.5471   84.8757   11.9471 C.ar    1  UNL1        0.0424
     16 C          64.0253   83.4539   11.9415 C.ar    1  UNL1        0.0037
     17 C          64.1908   82.7234   10.6420 C.ar    1  UNL1       -0.0002
     18 C          63.8781   83.4145    9.3480 C.ar    1  UNL1       -0.0029
     19 C          63.4000   84.8363    9.3535 C.ar    1  UNL1       -0.0060
     20 C          63.2345   85.5668   10.6531 C.ar    1  UNL1        0.0008
     21 C          63.0873   85.5274    8.0594 C.3     1  UNL1        0.0992
     22 N          61.9911   85.0077    7.1773 N.3     1  UNL1       -0.2665
     23 C          60.5570   85.2716    7.5288 C.3     1  UNL1        0.0899
     24 C          62.3291   84.2241    5.9437 C.3     1  UNL1        0.0899
     25 C          63.0212   89.8036   12.8086 C.ar    1  UNL1        0.0195
     26 C          61.5536   89.7877   13.1187 C.ar    1  UNL1        0.0028
     27 C          60.5817   89.2360   12.1183 C.ar    1  UNL1        0.0148
     28 C          61.0771   88.7002   10.8078 C.ar    1  UNL1        0.0516
     29 C          62.5446   88.7161   10.4977 C.ar    1  UNL1        0.0148
     30 C          63.5166   89.2678   11.4981 C.ar    1  UNL1        0.0028
     31 N          60.1051   88.1485    9.8073 N.am    1  UNL1       -0.2681
     32 C          59.8432   88.8887    8.5292 C.2     1  UNL1        0.3078
     33 O          60.5531   90.1805    8.2516 O.2     1  UNL1       -0.2522
     34 N          58.8712   88.3370    7.5288 N.am    1  UNL1       -0.2605
     35 C          58.6092   89.0772    6.2507 C.3     1  UNL1        0.1165
     36 C          58.1612   87.0452    7.8064 C.3     1  UNL1        0.1165
     37 H          59.6392   87.3006    9.9895 H       1  UNL1        0.1564
     38 C          68.1146   92.6276   14.7829 C.3     1  UNL1        0.0284
     39 C          66.6685   92.8445   15.1174 C.3     1  UNL1        0.1276
@<TRIPOS>BOND
     1    38    39    1
     2    39     1    1
     3     1     2   ar
     4     2     3   ar
     5     3     6    1
     6     6     7    2
     7     7     8    1
     8     8     9    2
     9     9    10    1
    10    10    11    2
    11    11    12    1
    12    12    15    1
    13    15    16   ar
    14    16    17   ar
    15    17    18   ar
    16    18    19   ar
    17    19    21    1
    18    21    22    1
    19    22    23    1
    20    22    24    1
    21    19    20   ar
    22    12    13    2
    23    13    14    1
    24     3     4   ar
    25     4    25    1
    26    25    26   ar
    27    26    27   ar
    28    27    28   ar
    29    28    31    1
    30    31    32   am
    31    32    33    2
    32    32    34   am
    33    34    35    1
    34    34    36    1
    35    28    29   ar
    36    29    30   ar
    37     4     5   ar
    38     5     1   ar
    39    14     6    1
    40    30    25   ar
    41    14    10    1
    42    20    15   ar
    43    31    37    1
@<TRIPOS>MOLECULE
*****
 39 43 0 0 0
SMALL
GASTEIGER

@<TRIPOS>ATOM
      1 N          65.9474   92.2612   14.2645 N.ar    1  UNL1       -0.2495
      2 C          65.6116   91.2314   15.3021 C.ar    1  UNL1        0.0963
      3 C          64.5603   90.3254   14.7328 C.ar    1  UNL1        0.0351
      4 C          64.2464   90.7953   13.3434 C.ar    1  UNL1        0.1020
      5 N          65.1036   91.9917   13.0539 N.ar    1  UNL1       -0.1693
      6 C          63.9331   89.1549   15.4306 C.2     1  UNL1        0.0003
      7 C          63.6210   89.2344   16.8956 C.2     1  UNL1        0.0472
      8 C          62.9938   88.0640   17.5933 C.2     1  UNL1        0.2354
      9 N          62.6787   86.8142   16.8260 N.2     1  UNL1       -0.0341
     10 C          62.9909   86.7348   15.3610 C.2     1  UNL1        0.3592
     11 N          62.7954   85.6432   14.3509 N.2     1  UNL1       -0.0382
     12 C          63.3018   86.1390   13.0289 C.2     1  UNL1        0.1897
     13 C          63.8102   87.5369   13.2219 C.2     1  UNL1        0.0369
     14 C          63.6180   87.9052   14.6633 C.3     1  UNL1        0.1600
     15 C          63.3001   85.3716   11.7400 C.ar    1  UNL1        0.0424
     16 C          62.8742   86.0428   10.4680 C.ar    1  UNL1        0.0037
     17 C          62.8725   85.2755    9.1792 C.ar    1  UNL1       -0.0002
     18 C          63.2967   83.8369    9.1623 C.ar    1  UNL1       -0.0029
     19 C          63.7226   83.1656   10.4343 C.ar    1  UNL1       -0.0060
     20 C          63.7243   83.9329   11.7231 C.ar    1  UNL1        0.0008
     21 C          64.1469   81.7269   10.4174 C.3     1  UNL1        0.0992
     22 N          63.2047   80.6615   10.8940 N.3     1  UNL1       -0.2665
     23 C          62.6259   80.7356   12.2758 C.3     1  UNL1        0.0899
     24 C          62.8413   79.5219    9.9888 C.3     1  UNL1        0.0899
     25 C          63.2502   90.1773   12.4076 C.ar    1  UNL1        0.0195
     26 C          63.6805   89.7323   11.0412 C.ar    1  UNL1        0.0028
     27 C          62.6843   89.1144   10.1055 C.ar    1  UNL1        0.0148
     28 C          61.2578   88.9414   10.5359 C.ar    1  UNL1        0.0516
     29 C          60.8276   89.3864   11.9023 C.ar    1  UNL1        0.0148
     30 C          61.8238   90.0044   12.8380 C.ar    1  UNL1        0.0028
     31 N          60.2616   88.3234    9.6002 N.am    1  UNL1       -0.2681
     32 C          59.8356   89.0603    8.3649 C.2     1  UNL1        0.3078
     33 O          60.4059   90.4149    8.0655 O.2     1  UNL1       -0.2522
     34 N          58.8394   88.4423    7.4292 N.am    1  UNL1       -0.2605
     35 C          58.4134   89.1790    6.1940 C.3     1  UNL1        0.1165
     36 C          58.2692   87.0876    7.7286 C.3     1  UNL1        0.1165
     37 H          59.8873   87.4343    9.7967 H       1  UNL1        0.1564
     38 C          67.8470   93.4107   15.6137 C.3     1  UNL1        0.0284
     39 C          66.9507   93.3665   14.4117 C.3     1  UNL1        0.1276
@<TRIPOS>BOND
     1    38    39    1
     2    39     1    1
     3     1     2   ar
     4     2     3   ar
     5     3     6    1
     6     6     7    2
     7     7     8    1
     8     8     9    2
     9     9    10    1
    10    10    11    2
    11    11    12    1
    12    12    15    1
    13    15    16   ar
    14    16    17   ar
    15    17    18   ar
    16    18    19   ar
    17    19    21    1
    18    21    22    1
    19    22    23    1
    20    22    24    1
    21    19    20   ar
    22    12    13    2
    23    13    14    1
    24     3     4   ar
    25     4    25    1
    26    25    26   ar
    27    26    27   ar
    28    27    28   ar
    29    28    31    1
    30    31    32   am
    31    32    33    2
    32    32    34   am
    33    34    35    1
    34    34    36    1
    35    28    29   ar
    36    29    30   ar
    37     4     5   ar
    38     5     1   ar
    39    14     6    1
    40    30    25   ar
    41    14    10    1
    42    20    15   ar
    43    31    37    1
@<TRIPOS>MOLECULE
*****
 39 43 0 0 0
SMALL
GASTEIGER

@<TRIPOS>ATOM
      1 N          62.9923   84.5525   10.4114 N.ar    1  UNL1       -0.2495
      2 C          62.6253   85.4084   11.5873 C.ar    1  UNL1        0.0963
      3 C          61.7797   86.5428   11.0891 C.ar    1  UNL1        0.0351
      4 C          61.6240   86.3880    9.6053 C.ar    1  UNL1        0.1020
      5 N          62.3734   85.1580    9.1864 N.ar    1  UNL1       -0.1693
      6 C          61.1928   87.6394   11.9276 C.2     1  UNL1        0.0003
      7 C          59.8053   87.5001   12.4803 C.2     1  UNL1        0.0472
      8 C          59.2183   88.5966   13.3188 C.2     1  UNL1        0.2354
      9 N          60.0189   89.8324   13.6046 N.2     1  UNL1       -0.0341
     10 C          61.4064   89.9718   13.0519 C.2     1  UNL1        0.3592
     11 N          62.4265   91.0658   13.1645 N.2     1  UNL1       -0.0382
     12 C          63.6438   90.6454   12.3956 C.2     1  UNL1        0.1897
     13 C          63.3761   89.2915   11.8078 C.2     1  UNL1        0.0369
     14 C          61.9933   88.8752   12.2134 C.3     1  UNL1        0.1600
     15 C          64.9072   91.4393   12.2415 C.ar    1  UNL1        0.0424
     16 C          65.1376   92.2485   10.9997 C.ar    1  UNL1        0.0037
     17 C          66.4009   93.0425   10.8456 C.ar    1  UNL1       -0.0002
     18 C          67.4336   93.0272   11.9332 C.ar    1  UNL1       -0.0029
     19 C          67.2032   92.2181   13.1751 C.ar    1  UNL1       -0.0060
     20 C          65.9399   91.4241   13.3292 C.ar    1  UNL1        0.0008
     21 C          68.2360   92.2028   14.2628 C.3     1  UNL1        0.0992
     22 N          68.0180   92.9989   15.5152 N.3     1  UNL1       -0.2665
     23 C          66.7826   92.7801   16.3374 C.3     1  UNL1        0.0899
     24 C          69.0354   94.0137   15.9456 C.3     1  UNL1        0.0899
     25 C          60.8542   87.3026    8.6994 C.ar    1  UNL1        0.0195
     26 C          60.1040   86.7409    7.5280 C.ar    1  UNL1        0.0028
     27 C          59.3341   87.6556    6.6221 C.ar    1  UNL1        0.0148
     28 C          59.3143   89.1318    6.8874 C.ar    1  UNL1        0.0516
     29 C          60.0644   89.6934    8.0587 C.ar    1  UNL1        0.0148
     30 C          60.8343   88.7788    8.9646 C.ar    1  UNL1        0.0028
     31 N          58.5444   90.0464    5.9815 N.am    1  UNL1       -0.2681
     32 C          59.2744   90.9635    5.0453 C.2     1  UNL1        0.3078
     33 O          60.7740   90.9659    5.0150 O.2     1  UNL1       -0.2522
     34 N          58.5045   91.8781    4.1393 N.am    1  UNL1       -0.2605
     35 C          59.2343   92.7951    3.2032 C.3     1  UNL1        0.1165
     36 C          57.0048   91.8757    4.1696 C.3     1  UNL1        0.1165
     37 H          57.5601   90.0449    6.0013 H       1  UNL1        0.1564
     38 C          64.3156   82.7756   11.7683 C.3     1  UNL1        0.0284
     39 C          63.8308   83.3095   10.4530 C.3     1  UNL1        0.1276
@<TRIPOS>BOND
     1    38    39    1
     2    39     1    1
     3     1     2   ar
     4     2     3   ar
     5     3     6    1
     6     6     7    2
     7     7     8    1
     8     8     9    2
     9     9    10    1
    10    10    11    2
    11    11    12    1
    12    12    15    1
    13    15    16   ar
    14    16    17   ar
    15    17    18   ar
    16    18    19   ar
    17    19    21    1
    18    21    22    1
    19    22    23    1
    20    22    24    1
    21    19    20   ar
    22    12    13    2
    23    13    14    1
    24     3     4   ar
    25     4    25    1
    26    25    26   ar
    27    26    27   ar
    28    27    28   ar
    29    28    31    1
    30    31    32   am
    31    32    33    2
    32    32    34   am
    33    34    35    1
    34    34    36    1
    35    28    29   ar
    36    29    30   ar
    37     4     5   ar
    38     5     1   ar
    39    14     6    1
    40    30    25   ar
    41    14    10    1
    42    20    15   ar
    43    31    37    1
