@<TRIPOS>MOLECULE
*****
 30 32 0 0 0
SMALL
GASTEIGER

@<TRIPOS>ATOM
      1 C          61.9606   88.7946   11.2157 C.3     1  UNL1        0.1628
      2 O          62.5718   87.6285   11.9344 O.3     1  UNL1       -0.3318
      3 C          62.2970   86.3925   11.1301 C.3     1  UNL1        0.2430
      4 C          61.5159   86.7948    9.9144 C.3     1  UNL1        0.2390
      5 F          61.0284   85.8741    8.8352 F       1  UNL1       -0.2298
      6 C          61.3080   88.2794    9.9672 C.3     1  UNL1        0.1760
      7 O          60.5761   89.1039    8.9502 O.3     1  UNL1       -0.3792
      8 H          60.5859   90.0352    9.2213 H       1  UNL1        0.2106
      9 N          62.7276   84.9989   11.4802 N.ar    1  UNL1       -0.2692
     10 C          63.2025   83.9541   10.5145 C.ar    1  UNL1        0.1816
     11 N          63.5274   82.7150   11.2949 N.ar    1  UNL1       -0.2194
     12 C          63.2531   82.9940   12.7430 C.ar    1  UNL1        0.1481
     13 C          63.3897   82.1452   13.9721 C.ar    1  UNL1        0.1480
     14 N          63.8840   80.7336   13.8576 N.pl3   1  UNL1       -0.3413
     15 N          63.0319   82.7079   15.3157 N.ar    1  UNL1       -0.2078
     16 C          62.5377   84.1195   15.4302 C.ar    1  UNL1        0.2015
     17 N          62.4011   84.9683   14.2011 N.ar    1  UNL1       -0.2048
     18 C          62.7589   84.4056   12.8575 C.ar    1  UNL1        0.1690
     19 H          64.1188   80.3643   12.9757 H       1  UNL1        0.1438
     20 H          63.9736   80.1764   14.6643 H       1  UNL1        0.1438
     21 C          61.9958   90.2249   11.6664 C.3     1  UNL1        0.1050
     22 C          63.8657   91.6012   10.5005 C.3     1  UNL1        0.0900
     23 N          63.3026   90.9583   11.7332 N.3     1  UNL1       -0.2656
     24 C          64.0464   91.0486   13.0328 C.3     1  UNL1        0.0987
     25 C          63.5708   90.2717   14.2245 C.2     1  UNL1       -0.0120
     26 C          63.9844   90.6882   15.6050 C.2     1  UNL1       -0.0125
     27 C          64.8733   91.8816   15.7936 C.3     1  UNL1        0.0916
     28 N          64.6976   92.7657   16.9925 N.3     1  UNL1       -0.3175
     29 H          63.7927   93.2334   16.9403 H       1  UNL1        0.1192
     30 H          65.4407   93.4640   17.0118 H       1  UNL1        0.1192
@<TRIPOS>BOND
     1    22    23    1
     2    23    24    1
     3    24    25    1
     4    25    26    2
     5    26    27    1
     6    27    28    1
     7    23    21    1
     8     1    21    1
     9     1     2    1
    10     2     3    1
    11     3     9    1
    12     9    10   ar
    13    10    11   ar
    14    11    12   ar
    15    12    13   ar
    16    13    14    1
    17    13    15   ar
    18    15    16   ar
    19    16    17   ar
    20    17    18   ar
    21     3     4    1
    22     4     5    1
    23     4     6    1
    24     6     7    1
    25     6     1    1
    26    18     9   ar
    27    18    12   ar
    28    28    29    1
    29    28    30    1
    30    14    19    1
    31    14    20    1
    32     7     8    1
@<TRIPOS>MOLECULE
*****
 30 32 0 0 0
SMALL
GASTEIGER

@<TRIPOS>ATOM
      1 C          62.1949   87.3923   11.1891 C.3     1  UNL1        0.1628
      2 O          63.1156   87.8679   12.2736 O.3     1  UNL1       -0.3318
      3 C          63.1968   89.3633   12.1900 C.3     1  UNL1        0.2430
      4 C          62.3263   89.8120   11.0539 C.3     1  UNL1        0.2390
      5 F          62.1125   91.2299   10.6136 F       1  UNL1       -0.2298
      6 C          61.7070   88.5939   10.4352 C.3     1  UNL1        0.1760
      7 O          60.7654   88.5797    9.2678 O.3     1  UNL1       -0.3792
      8 H          60.5129   87.6649    9.0671 H       1  UNL1        0.2106
      9 N          64.0064   90.2538   13.0854 N.ar    1  UNL1       -0.2692
     10 C          64.1586   90.1073   14.5704 C.ar    1  UNL1        0.1816
     11 N          65.0522   91.2100   15.0557 N.ar    1  UNL1       -0.2194
     12 C          65.4522   92.0380   13.8707 C.ar    1  UNL1        0.1481
     13 C          66.3215   93.2537   13.7431 C.ar    1  UNL1        0.1480
     14 N          66.9679   93.8447   14.9608 N.pl3   1  UNL1       -0.3413
     15 N          66.5444   93.8784   12.3978 N.ar    1  UNL1       -0.2078
     16 C          65.8981   93.2875   11.1800 C.ar    1  UNL1        0.2015
     17 N          65.0288   92.0717   11.3076 N.ar    1  UNL1       -0.2048
     18 C          64.8059   91.4470   12.6529 C.ar    1  UNL1        0.1690
     19 H          66.8216   93.4347   15.8438 H       1  UNL1        0.1438
     20 H          67.5384   94.6426   14.8771 H       1  UNL1        0.1438
     21 C          61.8267   85.9656   10.9079 C.3     1  UNL1        0.1050
     22 C          62.8879   85.4074    8.6030 C.3     1  UNL1        0.0900
     23 N          62.7260   85.1112   10.0645 N.3     1  UNL1       -0.2656
     24 C          63.4636   83.9605   10.6828 C.3     1  UNL1        0.0987
     25 C          62.7929   83.1112   11.7215 C.2     1  UNL1       -0.0120
     26 C          63.1064   83.3156   13.1741 C.2     1  UNL1       -0.0125
     27 C          64.0905   84.3693   13.5879 C.3     1  UNL1        0.0916
     28 N          63.6026   85.6741   14.1442 N.3     1  UNL1       -0.3175
     29 H          63.0993   86.1857   13.4193 H       1  UNL1        0.1192
     30 H          64.3987   86.2277   14.4607 H       1  UNL1        0.1192
@<TRIPOS>BOND
     1    22    23    1
     2    23    24    1
     3    24    25    1
     4    25    26    2
     5    26    27    1
     6    27    28    1
     7    23    21    1
     8     1    21    1
     9     1     2    1
    10     2     3    1
    11     3     9    1
    12     9    10   ar
    13    10    11   ar
    14    11    12   ar
    15    12    13   ar
    16    13    14    1
    17    13    15   ar
    18    15    16   ar
    19    16    17   ar
    20    17    18   ar
    21     3     4    1
    22     4     5    1
    23     4     6    1
    24     6     7    1
    25     6     1    1
    26    18     9   ar
    27    18    12   ar
    28    28    29    1
    29    28    30    1
    30    14    19    1
    31    14    20    1
    32     7     8    1
@<TRIPOS>MOLECULE
*****
 30 32 0 0 0
SMALL
GASTEIGER

@<TRIPOS>ATOM
      1 C          63.5366   86.6960   15.7838 C.3     1  UNL1        0.1628
      2 O          64.0558   87.4807   14.6156 O.3     1  UNL1       -0.3318
      3 C          64.0163   88.9352   14.9800 C.3     1  UNL1        0.2430
      4 C          63.4728   89.0494   16.3733 C.3     1  UNL1        0.2390
      5 F          63.2627   90.3238   17.1360 F       1  UNL1       -0.2298
      6 C          63.1763   87.6655   16.8702 C.3     1  UNL1        0.1760
      7 O          62.6177   87.3130   18.2169 O.3     1  UNL1       -0.3792
      8 H          62.5213   86.3502   18.2850 H       1  UNL1        0.2106
      9 N          64.4451   90.0754   14.1046 N.ar    1  UNL1       -0.2692
     10 C          65.4683   91.1162   14.4507 C.ar    1  UNL1        0.1816
     11 N          65.5815   92.0589   13.2894 N.ar    1  UNL1       -0.2194
     12 C          64.6283   91.6007   12.2257 C.ar    1  UNL1        0.1481
     13 C          64.3092   92.1413   10.8634 C.ar    1  UNL1        0.1480
     14 N          65.0115   93.3672   10.3596 N.pl3   1  UNL1       -0.3413
     15 N          63.2877   91.4560   10.0050 N.ar    1  UNL1       -0.2078
     16 C          62.5853   90.2301   10.5088 C.ar    1  UNL1        0.2015
     17 N          62.9045   89.6895   11.8711 N.ar    1  UNL1       -0.2048
     18 C          63.9260   90.3748   12.7295 C.ar    1  UNL1        0.1690
     19 H          65.6819   93.8170   10.9230 H       1  UNL1        0.1438
     20 H          64.8020   93.7221    9.4655 H       1  UNL1        0.1438
     21 C          63.4015   85.2036   15.8534 C.3     1  UNL1        0.1050
     22 C          65.1984   84.2576   14.2328 C.3     1  UNL1        0.0900
     23 N          63.7664   84.3614   14.6670 N.3     1  UNL1       -0.2656
     24 C          62.6992   83.6229   13.9148 C.3     1  UNL1        0.0987
     25 C          62.9333   83.2110   12.4915 C.2     1  UNL1       -0.0120
     26 C          62.6007   84.1542   11.3735 C.2     1  UNL1       -0.0125
     27 C          62.0339   85.5090   11.6788 C.3     1  UNL1        0.0916
     28 N          62.9255   86.5930   12.2079 N.3     1  UNL1       -0.3175
     29 H          63.2604   86.3350   13.1361 H       1  UNL1        0.1192
     30 H          62.4014   87.4662   12.2661 H       1  UNL1        0.1192
@<TRIPOS>BOND
     1    22    23    1
     2    23    24    1
     3    24    25    1
     4    25    26    2
     5    26    27    1
     6    27    28    1
     7    23    21    1
     8     1    21    1
     9     1     2    1
    10     2     3    1
    11     3     9    1
    12     9    10   ar
    13    10    11   ar
    14    11    12   ar
    15    12    13   ar
    16    13    14    1
    17    13    15   ar
    18    15    16   ar
    19    16    17   ar
    20    17    18   ar
    21     3     4    1
    22     4     5    1
    23     4     6    1
    24     6     7    1
    25     6     1    1
    26    18     9   ar
    27    18    12   ar
    28    28    29    1
    29    28    30    1
    30    14    19    1
    31    14    20    1
    32     7     8    1
@<TRIPOS>MOLECULE
*****
 30 32 0 0 0
SMALL
GASTEIGER

@<TRIPOS>ATOM
      1 C          63.6518   86.8278   15.7568 C.3     1  UNL1        0.1628
      2 O          64.0529   87.5595   14.5103 O.3     1  UNL1       -0.3318
      3 C          63.9317   89.0306   14.7770 C.3     1  UNL1        0.2430
      4 C          63.4557   89.2081   16.1883 C.3     1  UNL1        0.2390
      5 F          63.1979   90.5172   16.8737 F       1  UNL1       -0.2298
      6 C          63.2826   87.8467   16.7939 C.3     1  UNL1        0.1760
      7 O          62.8214   87.5554   18.1911 O.3     1  UNL1       -0.3792
      8 H          62.7959   86.5957   18.3297 H       1  UNL1        0.2106
      9 N          64.2336   90.1310   13.8033 N.ar    1  UNL1       -0.2692
     10 C          63.6094   90.3073   12.4508 C.ar    1  UNL1        0.1816
     11 N          64.2028   91.5335   11.8229 N.ar    1  UNL1       -0.2194
     12 C          65.1937   92.1150   12.7872 C.ar    1  UNL1        0.1481
     13 C          66.0810   93.3218   12.7089 C.ar    1  UNL1        0.1480
     14 N          66.0620   94.1886   11.4849 N.pl3   1  UNL1       -0.3413
     15 N          66.9875   93.6617   13.8547 N.ar    1  UNL1       -0.2078
     16 C          67.0065   92.7949   15.0787 C.ar    1  UNL1        0.2015
     17 N          66.1192   91.5881   15.1570 N.ar    1  UNL1       -0.2048
     18 C          65.2127   91.2482   14.0113 C.ar    1  UNL1        0.1690
     19 H          65.4670   93.9655   10.7329 H       1  UNL1        0.1438
     20 H          66.6444   94.9807   11.4335 H       1  UNL1        0.1438
     21 C          63.6245   85.3386   15.9349 C.3     1  UNL1        0.1050
     22 C          65.1471   84.2566   14.1290 C.3     1  UNL1        0.0900
     23 N          63.7924   84.4380   14.7471 N.3     1  UNL1       -0.2656
     24 C          62.6057   83.7188   14.1775 C.3     1  UNL1        0.0987
     25 C          62.6998   83.0669   12.8298 C.2     1  UNL1       -0.0120
     26 C          62.3514   81.6164   12.6725 C.2     1  UNL1       -0.0125
     27 C          61.9089   80.8179   13.8627 C.3     1  UNL1        0.0916
     28 N          60.4597   80.7873   14.2486 N.3     1  UNL1       -0.3175
     29 H          60.1682   81.7174   14.5491 H       1  UNL1        0.1192
     30 H          60.3254   80.1254   15.0129 H       1  UNL1        0.1192
@<TRIPOS>BOND
     1    22    23    1
     2    23    24    1
     3    24    25    1
     4    25    26    2
     5    26    27    1
     6    27    28    1
     7    23    21    1
     8     1    21    1
     9     1     2    1
    10     2     3    1
    11     3     9    1
    12     9    10   ar
    13    10    11   ar
    14    11    12   ar
    15    12    13   ar
    16    13    14    1
    17    13    15   ar
    18    15    16   ar
    19    16    17   ar
    20    17    18   ar
    21     3     4    1
    22     4     5    1
    23     4     6    1
    24     6     7    1
    25     6     1    1
    26    18     9   ar
    27    18    12   ar
    28    28    29    1
    29    28    30    1
    30    14    19    1
    31    14    20    1
    32     7     8    1
@<TRIPOS>MOLECULE
*****
 30 32 0 0 0
SMALL
GASTEIGER

@<TRIPOS>ATOM
      1 C          64.1819   90.2930   14.3560 C.3     1  UNL1        0.1628
      2 O          64.3745   88.9187   13.7866 O.3     1  UNL1       -0.3318
      3 C          63.9753   87.9227   14.8348 C.3     1  UNL1        0.2430
      4 C          63.5360   88.6814   16.0518 C.3     1  UNL1        0.2390
      5 F          63.0537   88.0806   17.3388 F       1  UNL1       -0.2298
      6 C          63.6636   90.1464   15.7560 C.3     1  UNL1        0.1760
      7 O          63.3314   91.2677   16.6951 O.3     1  UNL1       -0.3792
      8 H          63.5032   92.1167   16.2586 H       1  UNL1        0.2106
      9 N          64.0095   86.4300   14.6910 N.ar    1  UNL1       -0.2692
     10 C          64.5582   85.4598   15.6948 C.ar    1  UNL1        0.1816
     11 N          64.3887   84.0756   15.1423 N.ar    1  UNL1       -0.2194
     12 C          63.7353   84.1903   13.7970 C.ar    1  UNL1        0.1481
     13 C          63.3235   83.1577   12.7899 C.ar    1  UNL1        0.1480
     14 N          63.5579   81.7027   13.0689 N.pl3   1  UNL1       -0.3413
     15 N          62.6772   83.5803   11.5039 N.ar    1  UNL1       -0.2078
     16 C          62.4428   85.0353   11.2250 C.ar    1  UNL1        0.2015
     17 N          62.8547   86.0679   12.2320 N.ar    1  UNL1       -0.2048
     18 C          63.5009   85.6454   13.5180 C.ar    1  UNL1        0.1690
     19 H          63.9820   81.4253   13.9129 H       1  UNL1        0.1438
     20 H          63.2875   81.0250   12.4079 H       1  UNL1        0.1438
     21 C          64.4589   91.5869   13.6494 C.3     1  UNL1        0.1050
     22 C          66.1768   92.5923   15.3191 C.3     1  UNL1        0.0900
     23 N          65.7388   92.3246   13.9097 N.3     1  UNL1       -0.2656
     24 C          66.5806   92.7946   12.7605 C.3     1  UNL1        0.0987
     25 C          65.9284   93.2294   11.4817 C.2     1  UNL1       -0.0120
     26 C          66.6149   92.9881   10.1699 C.2     1  UNL1       -0.0125
     27 C          67.9535   92.3120   10.1371 C.3     1  UNL1        0.0916
     28 N          69.1834   93.0998    9.7954 N.3     1  UNL1       -0.3175
     29 H          69.1273   93.4145    8.8268 H       1  UNL1        0.1192
     30 H          70.0080   92.5114    9.9145 H       1  UNL1        0.1192
@<TRIPOS>BOND
     1    22    23    1
     2    23    24    1
     3    24    25    1
     4    25    26    2
     5    26    27    1
     6    27    28    1
     7    23    21    1
     8     1    21    1
     9     1     2    1
    10     2     3    1
    11     3     9    1
    12     9    10   ar
    13    10    11   ar
    14    11    12   ar
    15    12    13   ar
    16    13    14    1
    17    13    15   ar
    18    15    16   ar
    19    16    17   ar
    20    17    18   ar
    21     3     4    1
    22     4     5    1
    23     4     6    1
    24     6     7    1
    25     6     1    1
    26    18     9   ar
    27    18    12   ar
    28    28    29    1
    29    28    30    1
    30    14    19    1
    31    14    20    1
    32     7     8    1
@<TRIPOS>MOLECULE
*****
 30 32 0 0 0
SMALL
GASTEIGER

@<TRIPOS>ATOM
      1 C          63.8264   86.7126   15.5892 C.3     1  UNL1        0.1628
      2 O          64.2246   87.5105   14.3830 O.3     1  UNL1       -0.3318
      3 C          63.9963   88.9608   14.6906 C.3     1  UNL1        0.2430
      4 C          63.4571   89.0592   16.0867 C.3     1  UNL1        0.2390
      5 F          63.0877   90.3248   16.8020 F       1  UNL1       -0.2298
      6 C          63.3520   87.6698   16.6422 C.3     1  UNL1        0.1760
      7 O          62.8592   87.3021   18.0103 O.3     1  UNL1       -0.3792
      8 H          62.8922   86.3386   18.1177 H       1  UNL1        0.2106
      9 N          64.2608   90.1107   13.7644 N.ar    1  UNL1       -0.2692
     10 C          63.6859   90.2862   12.3901 C.ar    1  UNL1        0.1816
     11 N          64.2165   91.5710   11.8264 N.ar    1  UNL1       -0.2194
     12 C          65.1193   92.1895   12.8522 C.ar    1  UNL1        0.1481
     13 C          65.9200   93.4579   12.8504 C.ar    1  UNL1        0.1480
     14 N          65.8926   94.3604   11.6526 N.pl3   1  UNL1       -0.3413
     15 N          66.7480   93.8238   14.0464 N.ar    1  UNL1       -0.2078
     16 C          66.7754   92.9212   15.2442 C.ar    1  UNL1        0.2015
     17 N          65.9748   91.6528   15.2460 N.ar    1  UNL1       -0.2048
     18 C          65.1467   91.2870   14.0500 C.ar    1  UNL1        0.1690
     19 H          65.3491   94.1202   10.8677 H       1  UNL1        0.1438
     20 H          66.4182   95.1929   11.6515 H       1  UNL1        0.1438
     21 C          63.8912   85.2196   15.7195 C.3     1  UNL1        0.1050
     22 C          62.3037   83.3262   14.9166 C.3     1  UNL1        0.0900
     23 N          63.3618   84.3472   14.6201 N.3     1  UNL1       -0.2656
     24 C          63.8905   84.4957   13.2242 C.3     1  UNL1        0.0987
     25 C          63.1669   83.8565   12.0762 C.2     1  UNL1       -0.0120
     26 C          62.3884   84.7048   11.1147 C.2     1  UNL1       -0.0125
     27 C          62.3336   86.1922   11.3012 C.3     1  UNL1        0.0916
     28 N          61.0171   86.8699   11.5410 N.3     1  UNL1       -0.3175
     29 H          60.4323   86.7804   10.7100 H       1  UNL1        0.1192
     30 H          61.1746   87.8576   11.7411 H       1  UNL1        0.1192
@<TRIPOS>BOND
     1    22    23    1
     2    23    24    1
     3    24    25    1
     4    25    26    2
     5    26    27    1
     6    27    28    1
     7    23    21    1
     8     1    21    1
     9     1     2    1
    10     2     3    1
    11     3     9    1
    12     9    10   ar
    13    10    11   ar
    14    11    12   ar
    15    12    13   ar
    16    13    14    1
    17    13    15   ar
    18    15    16   ar
    19    16    17   ar
    20    17    18   ar
    21     3     4    1
    22     4     5    1
    23     4     6    1
    24     6     7    1
    25     6     1    1
    26    18     9   ar
    27    18    12   ar
    28    28    29    1
    29    28    30    1
    30    14    19    1
    31    14    20    1
    32     7     8    1
@<TRIPOS>MOLECULE
*****
 30 32 0 0 0
SMALL
GASTEIGER

@<TRIPOS>ATOM
      1 C          63.7916   89.8979   14.3447 C.3     1  UNL1        0.1628
      2 O          63.9922   88.5221   13.7816 O.3     1  UNL1       -0.3318
      3 C          63.8020   87.5338   14.8939 C.3     1  UNL1        0.2430
      4 C          63.4839   88.2987   16.1443 C.3     1  UNL1        0.2390
      5 F          63.2187   87.7065   17.4967 F       1  UNL1       -0.2298
      6 C          63.4774   89.7598   15.8050 C.3     1  UNL1        0.1760
      7 O          63.2047   90.8852   16.7583 O.3     1  UNL1       -0.3792
      8 H          63.2619   91.7304   16.2858 H       1  UNL1        0.2106
      9 N          63.9108   86.0424   14.7763 N.ar    1  UNL1       -0.2692
     10 C          64.4856   85.1163   15.8068 C.ar    1  UNL1        0.1816
     11 N          64.3940   83.7168   15.2748 N.ar    1  UNL1       -0.2194
     12 C          63.7626   83.7779   13.9156 C.ar    1  UNL1        0.1481
     13 C          63.4210   82.7105   12.9187 C.ar    1  UNL1        0.1480
     14 N          63.7196   81.2732   13.2268 N.pl3   1  UNL1       -0.3413
     15 N          62.7807   83.0804   11.6136 N.ar    1  UNL1       -0.2078
     16 C          62.4821   84.5177   11.3055 C.ar    1  UNL1        0.2015
     17 N          62.8237   85.5851   12.3024 N.ar    1  UNL1       -0.2048
     18 C          63.4640   85.2152   13.6074 C.ar    1  UNL1        0.1690
     19 H          64.1398   81.0304   14.0834 H       1  UNL1        0.1438
     20 H          63.4954   80.5726   12.5725 H       1  UNL1        0.1438
     21 C          63.8883   91.1856   13.5815 C.3     1  UNL1        0.1050
     22 C          65.5426   92.7025   12.2729 C.3     1  UNL1        0.0900
     23 N          65.1975   91.9132   13.5009 N.3     1  UNL1       -0.2656
     24 C          66.1617   91.8516   14.6484 C.3     1  UNL1        0.0987
     25 C          66.4919   93.0959   15.4181 C.2     1  UNL1       -0.0120
     26 C          67.9107   93.3780   15.8150 C.2     1  UNL1       -0.0125
     27 C          68.9993   92.4156   15.4421 C.3     1  UNL1        0.0916
     28 N          69.4022   92.2590   14.0058 N.3     1  UNL1       -0.3175
     29 H          68.6287   91.8547   13.4779 H       1  UNL1        0.1192
     30 H          70.2134   91.6436   13.9454 H       1  UNL1        0.1192
@<TRIPOS>BOND
     1    22    23    1
     2    23    24    1
     3    24    25    1
     4    25    26    2
     5    26    27    1
     6    27    28    1
     7    23    21    1
     8     1    21    1
     9     1     2    1
    10     2     3    1
    11     3     9    1
    12     9    10   ar
    13    10    11   ar
    14    11    12   ar
    15    12    13   ar
    16    13    14    1
    17    13    15   ar
    18    15    16   ar
    19    16    17   ar
    20    17    18   ar
    21     3     4    1
    22     4     5    1
    23     4     6    1
    24     6     7    1
    25     6     1    1
    26    18     9   ar
    27    18    12   ar
    28    28    29    1
    29    28    30    1
    30    14    19    1
    31    14    20    1
    32     7     8    1
@<TRIPOS>MOLECULE
*****
 30 32 0 0 0
SMALL
GASTEIGER

@<TRIPOS>ATOM
      1 C          64.0915   90.0277   14.2650 C.3     1  UNL1        0.1628
      2 O          64.2607   88.6285   13.7517 O.3     1  UNL1       -0.3318
      3 C          63.9132   87.6821   14.8624 C.3     1  UNL1        0.2430
      4 C          63.5291   88.4964   16.0621 C.3     1  UNL1        0.2390
      5 F          63.1087   87.9560   17.3967 F       1  UNL1       -0.2298
      6 C          63.6393   89.9462   15.6930 C.3     1  UNL1        0.1760
      7 O          63.3484   91.1098   16.5935 O.3     1  UNL1       -0.3792
      8 H          63.4976   91.9377   16.1105 H       1  UNL1        0.2106
      9 N          63.9443   86.1843   14.7866 N.ar    1  UNL1       -0.2692
     10 C          64.4518   85.2580   15.8517 C.ar    1  UNL1        0.1816
     11 N          64.2944   83.8511   15.3557 N.ar    1  UNL1       -0.2194
     12 C          63.6897   83.9080   13.9842 C.ar    1  UNL1        0.1481
     13 C          63.3082   82.8330   13.0102 C.ar    1  UNL1        0.1480
     14 N          63.5246   81.3910   13.3619 N.pl3   1  UNL1       -0.3413
     15 N          62.7102   83.2000   11.6844 N.ar    1  UNL1       -0.2078
     16 C          62.4938   84.6421   11.3327 C.ar    1  UNL1        0.2015
     17 N          62.8753   85.7170   12.3067 N.ar    1  UNL1       -0.2048
     18 C          63.4733   85.3500   13.6325 C.ar    1  UNL1        0.1690
     19 H          63.9170   81.1501   14.2321 H       1  UNL1        0.1438
     20 H          63.2741   80.6854   12.7226 H       1  UNL1        0.1438
     21 C          64.3321   91.2874   13.4870 C.3     1  UNL1        0.1050
     22 C          64.7427   92.1237   11.0616 C.3     1  UNL1        0.0900
     23 N          63.9002   91.3775   12.0533 N.3     1  UNL1       -0.2656
     24 C          62.6257   90.7213   11.6113 C.3     1  UNL1        0.0987
     25 C          62.4749   90.2549   10.1936 C.2     1  UNL1       -0.0120
     26 C          61.3116   89.3897    9.8086 C.2     1  UNL1       -0.0125
     27 C          60.2993   88.9909   10.8412 C.3     1  UNL1        0.0916
     28 N          60.3993   87.6531   11.5121 N.3     1  UNL1       -0.3175
     29 H          60.2421   86.9157   10.8252 H       1  UNL1        0.1192
     30 H          59.6958   87.5882   12.2477 H       1  UNL1        0.1192
@<TRIPOS>BOND
     1    22    23    1
     2    23    24    1
     3    24    25    1
     4    25    26    2
     5    26    27    1
     6    27    28    1
     7    23    21    1
     8     1    21    1
     9     1     2    1
    10     2     3    1
    11     3     9    1
    12     9    10   ar
    13    10    11   ar
    14    11    12   ar
    15    12    13   ar
    16    13    14    1
    17    13    15   ar
    18    15    16   ar
    19    16    17   ar
    20    17    18   ar
    21     3     4    1
    22     4     5    1
    23     4     6    1
    24     6     7    1
    25     6     1    1
    26    18     9   ar
    27    18    12   ar
    28    28    29    1
    29    28    30    1
    30    14    19    1
    31    14    20    1
    32     7     8    1
@<TRIPOS>MOLECULE
*****
 30 32 0 0 0
SMALL
GASTEIGER

@<TRIPOS>ATOM
      1 C          63.2102   84.3808   13.4385 C.3     1  UNL1        0.1628
      2 O          62.3929   85.4271   12.7404 O.3     1  UNL1       -0.3318
      3 C          62.5042   85.1927   11.2630 C.3     1  UNL1        0.2430
      4 C          63.3902   84.0016   11.0481 C.3     1  UNL1        0.2390
      5 F          63.7727   83.4153    9.7215 F       1  UNL1       -0.2298
      6 C          63.8266   83.4998   12.3926 C.3     1  UNL1        0.1760
      7 O          64.7220   82.3236   12.6466 O.3     1  UNL1       -0.3792
      8 H          64.8472   82.2129   13.6021 H       1  UNL1        0.2106
      9 N          61.8451   86.0066   10.1891 N.ar    1  UNL1       -0.2692
     10 C          61.6102   85.5724    8.7727 C.ar    1  UNL1        0.1816
     11 N          60.9252   86.6950    8.0514 N.ar    1  UNL1       -0.2194
     12 C          60.7367   87.8231    9.0219 C.ar    1  UNL1        0.1481
     13 C          60.1209   89.1827    8.8734 C.ar    1  UNL1        0.1480
     14 N          59.5523   89.6082    7.5521 N.pl3   1  UNL1       -0.3413
     15 N          60.0736   90.1168   10.0460 N.ar    1  UNL1       -0.2078
     16 C          60.6422   89.6913   11.3672 C.ar    1  UNL1        0.2015
     17 N          61.2580   88.3317   11.5158 N.ar    1  UNL1       -0.2048
     18 C          61.3053   87.3976   10.3432 C.ar    1  UNL1        0.1690
     19 H          59.5833   88.9951    6.7825 H       1  UNL1        0.1438
     20 H          59.1481   90.5006    7.4546 H       1  UNL1        0.1438
     21 C          63.3810   84.2402   14.9222 C.3     1  UNL1        0.1050
     22 C          62.1892   85.6316   16.7644 C.3     1  UNL1        0.0900
     23 N          63.3259   85.4540   15.8019 N.3     1  UNL1       -0.2656
     24 C          64.4074   86.4901   15.7189 C.3     1  UNL1        0.0987
     25 C          64.3887   87.5070   14.6164 C.2     1  UNL1       -0.0120
     26 C          63.8738   88.8909   14.8813 C.2     1  UNL1       -0.0125
     27 C          63.3777   89.2576   16.2485 C.3     1  UNL1        0.0916
     28 N          63.3114   90.6983   16.6607 N.3     1  UNL1       -0.3175
     29 H          64.2555   91.0807   16.7135 H       1  UNL1        0.1192
     30 H          62.8639   90.7702   17.5745 H       1  UNL1        0.1192
@<TRIPOS>BOND
     1    22    23    1
     2    23    24    1
     3    24    25    1
     4    25    26    2
     5    26    27    1
     6    27    28    1
     7    23    21    1
     8     1    21    1
     9     1     2    1
    10     2     3    1
    11     3     9    1
    12     9    10   ar
    13    10    11   ar
    14    11    12   ar
    15    12    13   ar
    16    13    14    1
    17    13    15   ar
    18    15    16   ar
    19    16    17   ar
    20    17    18   ar
    21     3     4    1
    22     4     5    1
    23     4     6    1
    24     6     7    1
    25     6     1    1
    26    18     9   ar
    27    18    12   ar
    28    28    29    1
    29    28    30    1
    30    14    19    1
    31    14    20    1
    32     7     8    1
