@<TRIPOS>MOLECULE
*****
 40 44 0 0 0
SMALL
GASTEIGER

@<TRIPOS>ATOM
      1 C          59.8019   90.1206    6.1638 C.2     1  UNL1        0.2495
      2 O          58.4178   90.3554    5.6353 O.2     1  UNL1       -0.2698
      3 N          60.9798   90.7636    5.4937 N.am    1  UNL1       -0.2804
      4 H          61.8881   90.6095    5.8406 H       1  UNL1        0.1552
      5 C          60.6264   86.6093   10.9588 C.3     1  UNL1        0.0317
      6 C          60.4203   87.4871    9.7600 C.ar    1  UNL1       -0.0142
      7 C          59.6056   86.9945    8.6009 C.ar    1  UNL1       -0.0035
      8 C          59.3995   87.8723    7.4022 C.ar    1  UNL1        0.0042
      9 C          60.0080   89.2428    7.3625 C.ar    1  UNL1        0.0543
     10 C          60.8226   89.7354    8.5217 C.ar    1  UNL1        0.0124
     11 C          61.0287   88.8576    9.7204 C.ar    1  UNL1        0.0382
     12 C          61.8434   89.3502   10.8796 C.1     1  UNL1       -0.0585
     13 C          62.6581   89.8429   12.0388 C.1     1  UNL1       -0.0388
     14 C          63.4727   90.3355   13.1980 C.ar    1  UNL1        0.1451
     15 C          63.3942   89.8310   14.6084 C.ar    1  UNL1        0.1281
     16 N          64.3819   90.6029   15.4323 N.ar    1  UNL1       -0.2228
     17 C          65.0707   91.5843   14.5311 C.ar    1  UNL1        0.1646
     18 C          66.1370   92.6071   14.7895 C.ar    1  UNL1        0.0405
     19 C          66.6414   93.4647   13.6670 C.ar    1  UNL1        0.0256
     20 C          66.0795   93.2995   12.2861 C.ar    1  UNL1        0.1207
     21 N          65.0132   92.2767   12.0277 N.ar    1  UNL1       -0.1616
     22 N          64.5088   91.4191   13.1502 N.ar    1  UNL1       -0.2030
     23 C          60.7737   91.6414    4.2950 C.ar    1  UNL1        0.0514
     24 C          59.4529   92.3191    4.0798 C.ar    1  UNL1        0.0145
     25 C          59.2468   93.1969    2.8811 C.ar    1  UNL1       -0.0008
     26 C          60.3615   93.3971    1.8974 C.ar    1  UNL1        0.0045
     27 C          61.6823   92.7194    2.1126 C.ar    1  UNL1        0.0562
     28 CL         62.7970   92.9195    1.1291 Cl      1  UNL1       -0.0825
     29 C          61.8883   91.8416    3.3113 C.ar    1  UNL1        0.0258
     30 C          60.1554   94.2749    0.6987 C.3     1  UNL1        0.1001
     31 N          59.4408   93.7416   -0.5074 N.3     1  UNL1       -0.2665
     32 C          60.1374   93.7018   -1.8353 C.3     1  UNL1        0.0899
     33 C          59.4227   93.1684   -3.0414 C.3     1  UNL1        0.0897
     34 N          58.0115   92.6748   -2.9197 N.3     1  UNL1       -0.2682
     35 C          57.3149   92.7146   -1.5918 C.3     1  UNL1        0.0897
     36 C          58.0295   93.2480   -0.3857 C.3     1  UNL1        0.0899
     37 C          57.2968   92.1415   -4.1259 C.3     1  UNL1        0.1043
     38 C          56.0103   91.3875   -3.9630 C.3     1  UNL1        0.1544
     39 O          56.0098   90.0378   -3.3086 O.3     1  UNL1       -0.3805
     40 H          56.4973   89.4092   -3.8637 H       1  UNL1        0.2105
@<TRIPOS>BOND
     1     5     6    1
     2     6     7   ar
     3     7     8   ar
     4     8     9   ar
     5     9     1    1
     6     1     2    2
     7     1     3   am
     8     3    23    1
     9    23    24   ar
    10    24    25   ar
    11    25    26   ar
    12    26    30    1
    13    30    31    1
    14    31    32    1
    15    32    33    1
    16    33    34    1
    17    34    37    1
    18    37    38    1
    19    38    39    1
    20    34    35    1
    21    35    36    1
    22    26    27   ar
    23    27    28    1
    24    27    29   ar
    25     9    10   ar
    26    10    11   ar
    27    11    12    1
    28    12    13    3
    29    13    14    1
    30    14    15   ar
    31    15    16   ar
    32    16    17   ar
    33    17    18   ar
    34    18    19   ar
    35    19    20   ar
    36    20    21   ar
    37    21    22   ar
    38    11     6   ar
    39    22    14   ar
    40    29    23   ar
    41    22    17   ar
    42    36    31    1
    43     3     4    1
    44    39    40    1
@<TRIPOS>MOLECULE
*****
 40 44 0 0 0
SMALL
GASTEIGER

@<TRIPOS>ATOM
      1 C          62.5148   92.8220    2.1537 C.2     1  UNL1        0.2495
      2 O          63.3694   91.9758    3.0502 O.2     1  UNL1       -0.2698
      3 N          61.0331   92.8915    2.3765 N.am    1  UNL1       -0.2804
      4 H          60.4723   93.4468    1.7881 H       1  UNL1        0.1552
      5 C          65.0238   95.9291   -2.3242 C.3     1  UNL1        0.0317
      6 C          64.3965   95.1524   -1.2048 C.ar    1  UNL1       -0.0142
      7 C          65.1366   94.9678    0.0868 C.ar    1  UNL1       -0.0035
      8 C          64.5095   94.1911    1.2063 C.ar    1  UNL1        0.0042
      9 C          63.1420   93.5988    1.0342 C.ar    1  UNL1        0.0543
     10 C          62.4019   93.7834   -0.2574 C.ar    1  UNL1        0.0124
     11 C          63.0292   94.5602   -1.3768 C.ar    1  UNL1        0.0382
     12 C          62.2891   94.7447   -2.6684 C.1     1  UNL1       -0.0585
     13 C          61.5490   94.9292   -3.9600 C.1     1  UNL1       -0.0388
     14 C          60.8089   95.1138   -5.2516 C.ar    1  UNL1        0.1451
     15 C          61.3049   95.8631   -6.4527 C.ar    1  UNL1        0.1281
     16 N          60.2453   95.7938   -7.5122 N.ar    1  UNL1       -0.2228
     17 C          59.0945   95.0018   -6.9660 C.ar    1  UNL1        0.1646
     18 C          57.7745   94.6091   -7.5603 C.ar    1  UNL1        0.0405
     19 C          56.8028   93.7960   -6.7574 C.ar    1  UNL1        0.0256
     20 C          57.1511   93.3758   -5.3602 C.ar    1  UNL1        0.1207
     21 N          58.4711   93.7685   -4.7659 N.ar    1  UNL1       -0.1616
     22 N          59.4428   94.5816   -5.5688 N.ar    1  UNL1       -0.2030
     23 C          60.4058   92.1147    3.4960 C.ar    1  UNL1        0.0514
     24 C          61.2625   91.2833    4.4041 C.ar    1  UNL1        0.0145
     25 C          60.6353   90.5065    5.5236 C.ar    1  UNL1       -0.0008
     26 C          59.1513   90.5611    5.7349 C.ar    1  UNL1        0.0045
     27 C          58.2945   91.3926    4.8268 C.ar    1  UNL1        0.0562
     28 CL         56.8105   91.4473    5.0381 Cl      1  UNL1       -0.0825
     29 C          58.9218   92.1693    3.7074 C.ar    1  UNL1        0.0258
     30 C          58.5240   89.7844    6.8544 C.3     1  UNL1        0.1001
     31 N          59.3409   88.7935    7.6295 N.3     1  UNL1       -0.2665
     32 C          60.2113   89.2592    8.7589 C.3     1  UNL1        0.0899
     33 C          61.0282   88.2682    9.5339 C.3     1  UNL1        0.0897
     34 N          60.9747   86.8117    9.1796 N.3     1  UNL1       -0.2682
     35 C          60.1043   86.3460    8.0502 C.3     1  UNL1        0.0897
     36 C          59.2874   87.3369    7.2751 C.3     1  UNL1        0.0899
     37 C          61.7917   85.8207    9.9547 C.3     1  UNL1        0.1043
     38 C          61.7997   85.8648   11.4540 C.3     1  UNL1        0.1544
     39 O          62.8209   86.6942   12.1745 O.3     1  UNL1       -0.3805
     40 H          63.7048   86.3265   12.0181 H       1  UNL1        0.2105
@<TRIPOS>BOND
     1     5     6    1
     2     6     7   ar
     3     7     8   ar
     4     8     9   ar
     5     9     1    1
     6     1     2    2
     7     1     3   am
     8     3    23    1
     9    23    24   ar
    10    24    25   ar
    11    25    26   ar
    12    26    30    1
    13    30    31    1
    14    31    32    1
    15    32    33    1
    16    33    34    1
    17    34    37    1
    18    37    38    1
    19    38    39    1
    20    34    35    1
    21    35    36    1
    22    26    27   ar
    23    27    28    1
    24    27    29   ar
    25     9    10   ar
    26    10    11   ar
    27    11    12    1
    28    12    13    3
    29    13    14    1
    30    14    15   ar
    31    15    16   ar
    32    16    17   ar
    33    17    18   ar
    34    18    19   ar
    35    19    20   ar
    36    20    21   ar
    37    21    22   ar
    38    11     6   ar
    39    22    14   ar
    40    29    23   ar
    41    22    17   ar
    42    36    31    1
    43     3     4    1
    44    39    40    1
@<TRIPOS>MOLECULE
*****
 40 44 0 0 0
SMALL
GASTEIGER

@<TRIPOS>ATOM
      1 C          59.7366   90.6967    5.6520 C.2     1  UNL1        0.2495
      2 O          58.4063   91.2969    5.3053 O.2     1  UNL1       -0.2698
      3 N          60.9524   91.0527    4.8488 N.am    1  UNL1       -0.2804
      4 H          61.8254   90.6588    5.0764 H       1  UNL1        0.1552
      5 C          60.1945   86.8719   10.2522 C.3     1  UNL1        0.0317
      6 C          60.0800   87.8281    9.1022 C.ar    1  UNL1       -0.0142
      7 C          59.1725   87.5112    7.9507 C.ar    1  UNL1       -0.0035
      8 C          59.0580   88.4673    6.8007 C.ar    1  UNL1        0.0042
      9 C          59.8511   89.7405    6.8020 C.ar    1  UNL1        0.0543
     10 C          60.7586   90.0575    7.9535 C.ar    1  UNL1        0.0124
     11 C          60.8731   89.1013    9.1035 C.ar    1  UNL1        0.0382
     12 C          61.7807   89.4183   10.2550 C.1     1  UNL1       -0.0585
     13 C          62.6883   89.7352   11.4065 C.1     1  UNL1       -0.0388
     14 C          63.5959   90.0522   12.5579 C.ar    1  UNL1        0.1451
     15 C          63.7344   89.2503   13.8180 C.ar    1  UNL1        0.1281
     16 N          64.7484   89.9292   14.6903 N.ar    1  UNL1       -0.2228
     17 C          65.2365   91.1507   13.9693 C.ar    1  UNL1        0.1646
     18 C          66.2375   92.2036   14.3426 C.ar    1  UNL1        0.0405
     19 C          66.5263   93.3324   13.3980 C.ar    1  UNL1        0.0256
     20 C          65.8139   93.4083   12.0801 C.ar    1  UNL1        0.1207
     21 N          64.8129   92.3555   11.7068 N.ar    1  UNL1       -0.1616
     22 N          64.5242   91.2267   12.6514 N.ar    1  UNL1       -0.2030
     23 C          60.8379   92.0089    3.6988 C.ar    1  UNL1        0.0514
     24 C          59.4919   92.3243    3.1167 C.ar    1  UNL1        0.0145
     25 C          59.3775   93.2805    1.9666 C.ar    1  UNL1       -0.0008
     26 C          60.6090   93.9213    1.3987 C.ar    1  UNL1        0.0045
     27 C          61.9550   93.6060    1.9807 C.ar    1  UNL1        0.0562
     28 CL         63.1866   94.2468    1.4128 Cl      1  UNL1       -0.0825
     29 C          62.0694   92.6498    3.1308 C.ar    1  UNL1        0.0258
     30 C          60.4945   94.8775    0.2486 C.3     1  UNL1        0.1001
     31 N          61.2272   94.6026   -1.0311 N.3     1  UNL1       -0.2665
     32 C          61.7426   95.7417   -1.8598 C.3     1  UNL1        0.0899
     33 C          62.4752   95.4667   -3.1395 C.3     1  UNL1        0.0897
     34 N          62.6924   94.0527   -3.5904 N.3     1  UNL1       -0.2682
     35 C          62.1770   92.9136   -2.7617 C.3     1  UNL1        0.0897
     36 C          61.4444   93.1885   -1.4820 C.3     1  UNL1        0.0899
     37 C          63.4251   93.7778   -4.8702 C.3     1  UNL1        0.1043
     38 C          64.6830   92.9607   -4.8536 C.3     1  UNL1        0.1544
     39 O          64.9537   92.0238   -3.7139 O.3     1  UNL1       -0.3805
     40 H          65.0809   92.5343   -2.8990 H       1  UNL1        0.2105
@<TRIPOS>BOND
     1     5     6    1
     2     6     7   ar
     3     7     8   ar
     4     8     9   ar
     5     9     1    1
     6     1     2    2
     7     1     3   am
     8     3    23    1
     9    23    24   ar
    10    24    25   ar
    11    25    26   ar
    12    26    30    1
    13    30    31    1
    14    31    32    1
    15    32    33    1
    16    33    34    1
    17    34    37    1
    18    37    38    1
    19    38    39    1
    20    34    35    1
    21    35    36    1
    22    26    27   ar
    23    27    28    1
    24    27    29   ar
    25     9    10   ar
    26    10    11   ar
    27    11    12    1
    28    12    13    3
    29    13    14    1
    30    14    15   ar
    31    15    16   ar
    32    16    17   ar
    33    17    18   ar
    34    18    19   ar
    35    19    20   ar
    36    20    21   ar
    37    21    22   ar
    38    11     6   ar
    39    22    14   ar
    40    29    23   ar
    41    22    17   ar
    42    36    31    1
    43     3     4    1
    44    39    40    1
@<TRIPOS>MOLECULE
*****
 40 44 0 0 0
SMALL
GASTEIGER

@<TRIPOS>ATOM
      1 C          60.3405   88.9204    7.8965 C.2     1  UNL1        0.2495
      2 O          60.5221   89.5067    9.2653 O.2     1  UNL1       -0.2698
      3 N          60.7153   87.4914    7.6368 N.am    1  UNL1       -0.2804
      4 H          60.5960   87.1067    6.7384 H       1  UNL1        0.1552
      5 C          58.1149   92.2920    3.4604 C.3     1  UNL1        0.0317
      6 C          58.6713   91.4492    4.5694 C.ar    1  UNL1       -0.0142
      7 C          57.7459   90.8057    5.5591 C.ar    1  UNL1       -0.0035
      8 C          58.3022   89.9628    6.6681 C.ar    1  UNL1        0.0042
      9 C          59.7841   89.7633    6.7875 C.ar    1  UNL1        0.0543
     10 C          60.7096   90.4068    5.7978 C.ar    1  UNL1        0.0124
     11 C          60.1532   91.2497    4.6888 C.ar    1  UNL1        0.0382
     12 C          61.0787   91.8931    3.6991 C.1     1  UNL1       -0.0585
     13 C          62.0041   92.5365    2.7093 C.1     1  UNL1       -0.0388
     14 C          62.9296   93.1800    1.7197 C.ar    1  UNL1        0.1451
     15 C          64.3001   93.7147    2.0126 C.ar    1  UNL1        0.1281
     16 N          64.8645   94.2669    0.7372 N.ar    1  UNL1       -0.2228
     17 C          63.8428   94.0735   -0.3439 C.ar    1  UNL1        0.1646
     18 C          63.8470   94.4223   -1.8027 C.ar    1  UNL1        0.0405
     19 C          62.6552   94.0993   -2.6544 C.ar    1  UNL1        0.0256
     20 C          61.4593   93.4276   -2.0472 C.ar    1  UNL1        0.1207
     21 N          61.4552   93.0788   -0.5884 N.ar    1  UNL1       -0.1616
     22 N          62.6470   93.4018    0.2633 N.ar    1  UNL1       -0.2030
     23 C          61.2717   86.6485    8.7458 C.ar    1  UNL1        0.0514
     24 C          60.7538   86.8116   10.1441 C.ar    1  UNL1        0.0145
     25 C          61.3102   85.9688   11.2531 C.ar    1  UNL1       -0.0008
     26 C          62.3845   84.9627   10.9639 C.ar    1  UNL1        0.0045
     27 C          62.9025   84.7995    9.5656 C.ar    1  UNL1        0.0562
     28 CL         63.9768   83.7935    9.2763 Cl      1  UNL1       -0.0825
     29 C          62.3460   85.6425    8.4566 C.ar    1  UNL1        0.0258
     30 C          62.9409   84.1198   12.0729 C.3     1  UNL1        0.1001
     31 N          63.0059   84.6648   13.4689 N.3     1  UNL1       -0.2665
     32 C          63.9857   85.7494   13.8058 C.3     1  UNL1        0.0899
     33 C          64.0506   86.2943   15.2017 C.3     1  UNL1        0.0897
     34 N          63.1357   85.7546   16.2608 N.3     1  UNL1       -0.2682
     35 C          62.1558   84.6700   15.9239 C.3     1  UNL1        0.0897
     36 C          62.0909   84.1251   14.5280 C.3     1  UNL1        0.0899
     37 C          63.2006   86.2996   17.6569 C.3     1  UNL1        0.1043
     38 C          62.7574   87.7055   17.9346 C.3     1  UNL1        0.1544
     39 O          63.1483   88.8131   17.0016 O.3     1  UNL1       -0.3805
     40 H          64.1099   88.9370   17.0317 H       1  UNL1        0.2105
@<TRIPOS>BOND
     1     5     6    1
     2     6     7   ar
     3     7     8   ar
     4     8     9   ar
     5     9     1    1
     6     1     2    2
     7     1     3   am
     8     3    23    1
     9    23    24   ar
    10    24    25   ar
    11    25    26   ar
    12    26    30    1
    13    30    31    1
    14    31    32    1
    15    32    33    1
    16    33    34    1
    17    34    37    1
    18    37    38    1
    19    38    39    1
    20    34    35    1
    21    35    36    1
    22    26    27   ar
    23    27    28    1
    24    27    29   ar
    25     9    10   ar
    26    10    11   ar
    27    11    12    1
    28    12    13    3
    29    13    14    1
    30    14    15   ar
    31    15    16   ar
    32    16    17   ar
    33    17    18   ar
    34    18    19   ar
    35    19    20   ar
    36    20    21   ar
    37    21    22   ar
    38    11     6   ar
    39    22    14   ar
    40    29    23   ar
    41    22    17   ar
    42    36    31    1
    43     3     4    1
    44    39    40    1
@<TRIPOS>MOLECULE
*****
 40 44 0 0 0
SMALL
GASTEIGER

@<TRIPOS>ATOM
      1 C          59.7424   90.5317    5.6591 C.2     1  UNL1        0.2495
      2 O          58.3781   90.8389    5.1163 O.2     1  UNL1       -0.2698
      3 N          60.9632   91.0404    4.9515 N.am    1  UNL1       -0.2804
      4 H          61.8586   90.8387    5.3078 H       1  UNL1        0.1552
      5 C          60.3156   87.2677   10.6609 C.3     1  UNL1        0.0317
      6 C          60.1723   88.0837    9.4105 C.ar    1  UNL1       -0.0142
      7 C          59.3002   87.5953    8.2920 C.ar    1  UNL1       -0.0035
      8 C          59.1569   88.4112    7.0416 C.ar    1  UNL1        0.0042
      9 C          59.8856   89.7157    6.9095 C.ar    1  UNL1        0.0543
     10 C          60.7577   90.2041    8.0280 C.ar    1  UNL1        0.0124
     11 C          60.9010   89.3881    9.2784 C.ar    1  UNL1        0.0382
     12 C          61.7731   89.8765   10.3969 C.1     1  UNL1       -0.0585
     13 C          62.6453   90.3649   11.5153 C.1     1  UNL1       -0.0388
     14 C          63.5173   90.8533   12.6338 C.ar    1  UNL1        0.1451
     15 C          64.7002   91.7652   12.4957 C.ar    1  UNL1        0.1281
     16 N          65.2735   91.9910   13.8633 N.ar    1  UNL1       -0.2228
     17 C          64.4450   91.2186   14.8466 C.ar    1  UNL1        0.1646
     18 C          64.5386   91.0647   16.3357 C.ar    1  UNL1        0.0405
     19 C          63.5469   90.2076   17.0649 C.ar    1  UNL1        0.0256
     20 C          62.4615   89.5045   16.3051 C.ar    1  UNL1        0.1207
     21 N          62.3678   89.6584   14.8159 N.ar    1  UNL1       -0.1616
     22 N          63.3596   90.5154   14.0867 N.ar    1  UNL1       -0.2030
     23 C          60.8199   91.8564    3.7011 C.ar    1  UNL1        0.0514
     24 C          59.4607   92.2970    3.2446 C.ar    1  UNL1        0.0145
     25 C          59.3174   93.1130    1.9942 C.ar    1  UNL1       -0.0008
     26 C          60.5334   93.4884    1.2001 C.ar    1  UNL1        0.0045
     27 C          61.8927   93.0478    1.6565 C.ar    1  UNL1        0.0562
     28 CL         63.1086   93.4232    0.8626 Cl      1  UNL1       -0.0825
     29 C          62.0359   92.2318    2.9070 C.ar    1  UNL1        0.0258
     30 C          60.3901   94.3044   -0.0503 C.3     1  UNL1        0.1001
     31 N          59.2722   94.0182   -1.0086 N.3     1  UNL1       -0.2665
     32 C          59.3699   92.8532   -1.9485 C.3     1  UNL1        0.0899
     33 C          58.2519   92.5670   -2.9067 C.3     1  UNL1        0.0897
     34 N          57.0365   93.4458   -2.9253 N.3     1  UNL1       -0.2682
     35 C          56.9389   94.6108   -1.9854 C.3     1  UNL1        0.0897
     36 C          58.0567   94.8970   -1.0271 C.3     1  UNL1        0.0899
     37 C          55.9185   93.1596   -3.8836 C.3     1  UNL1        0.1043
     38 C          56.1044   93.4137   -5.3502 C.3     1  UNL1        0.1544
     39 O          57.4778   93.3665   -5.9513 O.3     1  UNL1       -0.3805
     40 H          58.0131   94.0912   -5.5919 H       1  UNL1        0.2105
@<TRIPOS>BOND
     1     5     6    1
     2     6     7   ar
     3     7     8   ar
     4     8     9   ar
     5     9     1    1
     6     1     2    2
     7     1     3   am
     8     3    23    1
     9    23    24   ar
    10    24    25   ar
    11    25    26   ar
    12    26    30    1
    13    30    31    1
    14    31    32    1
    15    32    33    1
    16    33    34    1
    17    34    37    1
    18    37    38    1
    19    38    39    1
    20    34    35    1
    21    35    36    1
    22    26    27   ar
    23    27    28    1
    24    27    29   ar
    25     9    10   ar
    26    10    11   ar
    27    11    12    1
    28    12    13    3
    29    13    14    1
    30    14    15   ar
    31    15    16   ar
    32    16    17   ar
    33    17    18   ar
    34    18    19   ar
    35    19    20   ar
    36    20    21   ar
    37    21    22   ar
    38    11     6   ar
    39    22    14   ar
    40    29    23   ar
    41    22    17   ar
    42    36    31    1
    43     3     4    1
    44    39    40    1
@<TRIPOS>MOLECULE
*****
 40 44 0 0 0
SMALL
GASTEIGER

@<TRIPOS>ATOM
      1 C          60.0875   88.8420    7.5158 C.2     1  UNL1        0.2495
      2 O          59.6998   87.3944    7.4501 O.2     1  UNL1       -0.2698
      3 N          60.9583   89.3354    8.6330 N.am    1  UNL1       -0.2804
      4 H          61.2127   90.2855    8.6761 H       1  UNL1        0.1552
      5 C          58.1545   92.6590    3.3093 C.3     1  UNL1        0.0317
      6 C          58.6377   91.7048    4.3609 C.ar    1  UNL1       -0.0142
      7 C          57.6585   91.0639    5.2992 C.ar    1  UNL1       -0.0035
      8 C          58.1417   90.1097    6.3508 C.ar    1  UNL1        0.0042
      9 C          59.6042   89.7963    6.4642 C.ar    1  UNL1        0.0543
     10 C          60.5835   90.4371    5.5259 C.ar    1  UNL1        0.0124
     11 C          60.1002   91.3914    4.4743 C.ar    1  UNL1        0.0382
     12 C          61.0795   92.0322    3.5360 C.1     1  UNL1       -0.0585
     13 C          62.0588   92.6730    2.5977 C.1     1  UNL1       -0.0388
     14 C          63.0380   93.3139    1.6594 C.ar    1  UNL1        0.1451
     15 C          64.3844   93.8618    2.0293 C.ar    1  UNL1        0.1281
     16 N          65.0213   94.4059    0.7850 N.ar    1  UNL1       -0.2228
     17 C          64.0684   94.1942   -0.3540 C.ar    1  UNL1        0.1646
     18 C          64.1585   94.5289   -1.8134 C.ar    1  UNL1        0.0405
     19 C          63.0229   94.1886   -2.7324 C.ar    1  UNL1        0.0256
     20 C          61.7972   93.5137   -2.1919 C.ar    1  UNL1        0.1207
     21 N          61.7071   93.1791   -0.7325 N.ar    1  UNL1       -0.1616
     22 N          62.8427   93.5193    0.1864 N.ar    1  UNL1       -0.2030
     23 C          61.4416   88.3811    9.6846 C.ar    1  UNL1        0.0514
     24 C          61.0306   86.9394    9.6351 C.ar    1  UNL1        0.0145
     25 C          61.5139   85.9852   10.6867 C.ar    1  UNL1       -0.0008
     26 C          62.4082   86.4727   11.7879 C.ar    1  UNL1        0.0045
     27 C          62.8192   87.9144   11.8375 C.ar    1  UNL1        0.0562
     28 CL         63.7135   88.4020   12.9386 Cl      1  UNL1       -0.0825
     29 C          62.3359   88.8686   10.7858 C.ar    1  UNL1        0.0258
     30 C          62.8914   85.5184   12.8395 C.3     1  UNL1        0.1001
     31 N          62.8576   84.0408   12.5840 N.3     1  UNL1       -0.2665
     32 C          63.3977   83.4895   11.2978 C.3     1  UNL1        0.0899
     33 C          63.3638   82.0118   11.0423 C.3     1  UNL1        0.0897
     34 N          62.7898   81.0854   12.0730 N.3     1  UNL1       -0.2682
     35 C          62.2496   81.6367   13.3592 C.3     1  UNL1        0.0897
     36 C          62.2835   83.1144   13.6147 C.3     1  UNL1        0.0899
     37 C          62.7559   79.6077   11.8175 C.3     1  UNL1        0.1043
     38 C          62.7516   79.0899   10.4097 C.3     1  UNL1        0.1544
     39 O          63.0606   77.6470   10.1404 O.3     1  UNL1       -0.3805
     40 H          63.9831   77.4641   10.3779 H       1  UNL1        0.2105
@<TRIPOS>BOND
     1     5     6    1
     2     6     7   ar
     3     7     8   ar
     4     8     9   ar
     5     9     1    1
     6     1     2    2
     7     1     3   am
     8     3    23    1
     9    23    24   ar
    10    24    25   ar
    11    25    26   ar
    12    26    30    1
    13    30    31    1
    14    31    32    1
    15    32    33    1
    16    33    34    1
    17    34    37    1
    18    37    38    1
    19    38    39    1
    20    34    35    1
    21    35    36    1
    22    26    27   ar
    23    27    28    1
    24    27    29   ar
    25     9    10   ar
    26    10    11   ar
    27    11    12    1
    28    12    13    3
    29    13    14    1
    30    14    15   ar
    31    15    16   ar
    32    16    17   ar
    33    17    18   ar
    34    18    19   ar
    35    19    20   ar
    36    20    21   ar
    37    21    22   ar
    38    11     6   ar
    39    22    14   ar
    40    29    23   ar
    41    22    17   ar
    42    36    31    1
    43     3     4    1
    44    39    40    1
@<TRIPOS>MOLECULE
*****
 40 44 0 0 0
SMALL
GASTEIGER

@<TRIPOS>ATOM
      1 C          60.1945   88.7227    7.6799 C.2     1  UNL1        0.2495
      2 O          58.9621   88.1709    7.0266 O.2     1  UNL1       -0.2698
      3 N          60.8413   89.9617    7.1353 N.am    1  UNL1       -0.2804
      4 H          61.6502   90.3239    7.5642 H       1  UNL1        0.1552
      5 C          62.5366   85.9740   12.4715 C.3     1  UNL1        0.0317
      6 C          61.9511   86.6612   11.2736 C.ar    1  UNL1       -0.0142
      7 C          61.3113   85.8533   10.1837 C.ar    1  UNL1       -0.0035
      8 C          60.7258   86.5404    8.9858 C.ar    1  UNL1        0.0042
      9 C          60.7800   88.0356    8.8777 C.ar    1  UNL1        0.0543
     10 C          61.4198   88.8435    9.9677 C.ar    1  UNL1        0.0124
     11 C          62.0053   88.1563   11.1656 C.ar    1  UNL1        0.0382
     12 C          62.6451   88.9642   12.2555 C.1     1  UNL1       -0.0585
     13 C          63.2849   89.7721   13.3455 C.1     1  UNL1       -0.0388
     14 C          63.9247   90.5800   14.4354 C.ar    1  UNL1        0.1451
     15 C          63.3707   90.7984   15.8121 C.ar    1  UNL1        0.1281
     16 N          64.3345   91.6648   16.5675 N.ar    1  UNL1       -0.2228
     17 C          65.4841   91.9818   15.6576 C.ar    1  UNL1        0.1646
     18 C          66.7288   92.7944   15.8588 C.ar    1  UNL1        0.0405
     19 C          67.7202   92.9365   14.7422 C.ar    1  UNL1        0.0256
     20 C          67.4669   92.2661   13.4245 C.ar    1  UNL1        0.1207
     21 N          66.2223   91.4536   13.2233 N.ar    1  UNL1       -0.1616
     22 N          65.2308   91.3114   14.3399 N.ar    1  UNL1       -0.2030
     23 C          60.2558   90.6489    5.9375 C.ar    1  UNL1        0.0514
     24 C          61.1532   91.1329    4.8373 C.ar    1  UNL1        0.0145
     25 C          60.5677   91.8201    3.6394 C.ar    1  UNL1       -0.0008
     26 C          59.0847   92.0233    3.5417 C.ar    1  UNL1        0.0045
     27 C          58.1873   91.5393    4.6418 C.ar    1  UNL1        0.0562
     28 CL         56.7043   91.7424    4.5442 Cl      1  UNL1       -0.0825
     29 C          58.7729   90.8521    5.8397 C.ar    1  UNL1        0.0258
     30 C          58.4992   92.7105    2.3438 C.3     1  UNL1        0.1001
     31 N          59.4012   93.2561    1.2767 N.3     1  UNL1       -0.2665
     32 C          59.6241   92.4788    0.0133 C.3     1  UNL1        0.0899
     33 C          60.5261   93.0245   -1.0536 C.3     1  UNL1        0.0897
     34 N          61.2054   94.3474   -0.8573 N.3     1  UNL1       -0.2682
     35 C          60.9825   95.1247    0.4062 C.3     1  UNL1        0.0897
     36 C          60.0805   94.5790    1.4732 C.3     1  UNL1        0.0899
     37 C          62.1075   94.8930   -1.9244 C.3     1  UNL1        0.1043
     38 C          63.3853   94.1834   -2.2613 C.3     1  UNL1        0.1544
     39 O          64.6372   94.4878   -1.4932 O.3     1  UNL1       -0.3805
     40 H          64.9088   95.4027   -1.6671 H       1  UNL1        0.2105
@<TRIPOS>BOND
     1     5     6    1
     2     6     7   ar
     3     7     8   ar
     4     8     9   ar
     5     9     1    1
     6     1     2    2
     7     1     3   am
     8     3    23    1
     9    23    24   ar
    10    24    25   ar
    11    25    26   ar
    12    26    30    1
    13    30    31    1
    14    31    32    1
    15    32    33    1
    16    33    34    1
    17    34    37    1
    18    37    38    1
    19    38    39    1
    20    34    35    1
    21    35    36    1
    22    26    27   ar
    23    27    28    1
    24    27    29   ar
    25     9    10   ar
    26    10    11   ar
    27    11    12    1
    28    12    13    3
    29    13    14    1
    30    14    15   ar
    31    15    16   ar
    32    16    17   ar
    33    17    18   ar
    34    18    19   ar
    35    19    20   ar
    36    20    21   ar
    37    21    22   ar
    38    11     6   ar
    39    22    14   ar
    40    29    23   ar
    41    22    17   ar
    42    36    31    1
    43     3     4    1
    44    39    40    1
@<TRIPOS>MOLECULE
*****
 40 44 0 0 0
SMALL
GASTEIGER

@<TRIPOS>ATOM
      1 C          60.0737   88.7999    7.9178 C.2     1  UNL1        0.2495
      2 O          60.5117   87.4030    7.5907 O.2     1  UNL1       -0.2698
      3 N          60.4654   89.4221    9.2252 N.am    1  UNL1       -0.2804
      4 H          60.1779   90.3389    9.4398 H       1  UNL1        0.1552
      5 C          56.7549   91.8987    3.9956 C.3     1  UNL1        0.0317
      6 C          57.5846   91.1240    4.9761 C.ar    1  UNL1       -0.0142
      7 C          56.9238   90.1818    5.9382 C.ar    1  UNL1       -0.0035
      8 C          57.7534   89.4071    6.9187 C.ar    1  UNL1        0.0042
      9 C          59.2440   89.5746    6.9372 C.ar    1  UNL1        0.0543
     10 C          59.9048   90.5168    5.9752 C.ar    1  UNL1        0.0124
     11 C          59.0751   91.2915    4.9946 C.ar    1  UNL1        0.0382
     12 C          59.7359   92.2337    4.0326 C.1     1  UNL1       -0.0585
     13 C          60.3968   93.1759    3.0705 C.1     1  UNL1       -0.0388
     14 C          61.0576   94.1182    2.1084 C.ar    1  UNL1        0.1451
     15 C          60.4427   95.3544    1.5222 C.ar    1  UNL1        0.1281
     16 N          61.4544   95.9898    0.6152 N.ar    1  UNL1       -0.2228
     17 C          62.6945   95.1463    0.6408 C.ar    1  UNL1        0.1646
     18 C          64.0153   95.2820   -0.0570 C.ar    1  UNL1        0.0405
     19 C          65.0908   94.2610    0.1681 C.ar    1  UNL1        0.0256
     20 C          64.8456   93.1043    1.0910 C.ar    1  UNL1        0.1207
     21 N          63.5248   92.9685    1.7888 N.ar    1  UNL1       -0.1616
     22 N          62.4492   93.9895    1.5637 N.ar    1  UNL1       -0.2030
     23 C          61.2951   88.6474   10.2057 C.ar    1  UNL1        0.0514
     24 C          61.2340   87.1487   10.2208 C.ar    1  UNL1        0.0145
     25 C          62.0637   86.3740   11.2013 C.ar    1  UNL1       -0.0008
     26 C          62.9546   87.0980   12.1668 C.ar    1  UNL1        0.0045
     27 C          63.0157   88.5966   12.1519 C.ar    1  UNL1        0.0562
     28 CL         63.9065   89.3207   13.1173 Cl      1  UNL1       -0.0825
     29 C          62.1859   89.3713   11.1713 C.ar    1  UNL1        0.0258
     30 C          63.7843   86.3233   13.1473 C.3     1  UNL1        0.1001
     31 N          63.5320   84.8587   13.3510 N.3     1  UNL1       -0.2665
     32 C          64.1446   83.8555   12.4191 C.3     1  UNL1        0.0899
     33 C          63.8923   82.3910   12.6228 C.3     1  UNL1        0.0897
     34 N          63.0275   81.9297   13.7583 N.3     1  UNL1       -0.2682
     35 C          62.4150   82.9329   14.6901 C.3     1  UNL1        0.0897
     36 C          62.6672   84.3974   14.4865 C.3     1  UNL1        0.0899
     37 C          62.7753   80.4651   13.9619 C.3     1  UNL1        0.1043
     38 C          61.3947   79.9088   13.7760 C.3     1  UNL1        0.1544
     39 O          60.2111   80.6343   14.3442 O.3     1  UNL1       -0.3805
     40 H          60.2608   80.6250   15.3129 H       1  UNL1        0.2105
@<TRIPOS>BOND
     1     5     6    1
     2     6     7   ar
     3     7     8   ar
     4     8     9   ar
     5     9     1    1
     6     1     2    2
     7     1     3   am
     8     3    23    1
     9    23    24   ar
    10    24    25   ar
    11    25    26   ar
    12    26    30    1
    13    30    31    1
    14    31    32    1
    15    32    33    1
    16    33    34    1
    17    34    37    1
    18    37    38    1
    19    38    39    1
    20    34    35    1
    21    35    36    1
    22    26    27   ar
    23    27    28    1
    24    27    29   ar
    25     9    10   ar
    26    10    11   ar
    27    11    12    1
    28    12    13    3
    29    13    14    1
    30    14    15   ar
    31    15    16   ar
    32    16    17   ar
    33    17    18   ar
    34    18    19   ar
    35    19    20   ar
    36    20    21   ar
    37    21    22   ar
    38    11     6   ar
    39    22    14   ar
    40    29    23   ar
    41    22    17   ar
    42    36    31    1
    43     3     4    1
    44    39    40    1
@<TRIPOS>MOLECULE
*****
 40 44 0 0 0
SMALL
GASTEIGER

@<TRIPOS>ATOM
      1 C          61.0955   92.5560    2.9340 C.2     1  UNL1        0.2495
      2 O          62.4272   91.8829    2.7807 O.2     1  UNL1       -0.2698
      3 N          60.8190   93.8439    2.2166 N.am    1  UNL1       -0.2804
      4 H          59.9449   94.2857    2.3173 H       1  UNL1        0.1552
      5 C          56.8745   90.0961    6.4172 C.3     1  UNL1        0.0317
      6 C          57.9298   90.7110    5.5465 C.ar    1  UNL1       -0.0142
      7 C          57.5344   91.5683    4.3808 C.ar    1  UNL1       -0.0035
      8 C          58.5895   92.1832    3.5100 C.ar    1  UNL1        0.0042
      9 C          60.0403   91.9410    3.8048 C.ar    1  UNL1        0.0543
     10 C          60.4356   91.0838    4.9705 C.ar    1  UNL1        0.0124
     11 C          59.3804   90.4688    5.8413 C.ar    1  UNL1        0.0382
     12 C          59.7758   89.6116    7.0070 C.1     1  UNL1       -0.0585
     13 C          60.1712   88.7543    8.1726 C.1     1  UNL1       -0.0388
     14 C          60.5666   87.8971    9.3383 C.ar    1  UNL1        0.1451
     15 C          60.1011   88.0651   10.7543 C.ar    1  UNL1        0.1281
     16 N          60.7437   86.9932   11.5838 N.ar    1  UNL1       -0.2228
     17 C          61.6064   86.1626   10.6804 C.ar    1  UNL1        0.1646
     18 C          62.4774   84.9699   10.9422 C.ar    1  UNL1        0.0405
     19 C          63.2389   84.3357    9.8162 C.ar    1  UNL1        0.0256
     20 C          63.1294   84.8944    8.4284 C.ar    1  UNL1        0.1207
     21 N          62.2584   86.0871    8.1666 N.ar    1  UNL1       -0.1616
     22 N          61.4969   86.7213    9.2926 N.ar    1  UNL1       -0.2030
     23 C          61.8742   94.4589    1.3459 C.ar    1  UNL1        0.0514
     24 C          63.3242   94.1927    1.6229 C.ar    1  UNL1        0.0145
     25 C          64.3794   94.8076    0.7521 C.ar    1  UNL1       -0.0008
     26 C          63.9847   95.6889   -0.3958 C.ar    1  UNL1        0.0045
     27 C          62.5348   95.9552   -0.6729 C.ar    1  UNL1        0.0562
     28 CL         62.1400   96.8364   -1.8207 Cl      1  UNL1       -0.0825
     29 C          61.4796   95.3401    0.1980 C.ar    1  UNL1        0.0258
     30 C          65.0400   96.3038   -1.2666 C.3     1  UNL1        0.1001
     31 N          65.1321   95.9243   -2.7148 N.3     1  UNL1       -0.2665
     32 C          65.7844   96.8547   -3.6940 C.3     1  UNL1        0.0899
     33 C          65.8765   96.4751   -5.1422 C.3     1  UNL1        0.0897
     34 N          65.3164   95.1650   -5.6113 N.3     1  UNL1       -0.2682
     35 C          64.6642   94.2346   -4.6321 C.3     1  UNL1        0.0897
     36 C          64.5720   94.6141   -3.1839 C.3     1  UNL1        0.0899
     37 C          65.4086   94.7854   -7.0596 C.3     1  UNL1        0.1043
     38 C          65.2432   93.3526   -7.4713 C.3     1  UNL1        0.1544
     39 O          66.3395   92.3643   -7.2044 O.3     1  UNL1       -0.3805
     40 H          67.1194   92.5960   -7.7325 H       1  UNL1        0.2105
@<TRIPOS>BOND
     1     5     6    1
     2     6     7   ar
     3     7     8   ar
     4     8     9   ar
     5     9     1    1
     6     1     2    2
     7     1     3   am
     8     3    23    1
     9    23    24   ar
    10    24    25   ar
    11    25    26   ar
    12    26    30    1
    13    30    31    1
    14    31    32    1
    15    32    33    1
    16    33    34    1
    17    34    37    1
    18    37    38    1
    19    38    39    1
    20    34    35    1
    21    35    36    1
    22    26    27   ar
    23    27    28    1
    24    27    29   ar
    25     9    10   ar
    26    10    11   ar
    27    11    12    1
    28    12    13    3
    29    13    14    1
    30    14    15   ar
    31    15    16   ar
    32    16    17   ar
    33    17    18   ar
    34    18    19   ar
    35    19    20   ar
    36    20    21   ar
    37    21    22   ar
    38    11     6   ar
    39    22    14   ar
    40    29    23   ar
    41    22    17   ar
    42    36    31    1
    43     3     4    1
    44    39    40    1
