@<TRIPOS>MOLECULE
*****
 32 35 0 0 0
SMALL
GASTEIGER

@<TRIPOS>ATOM
      1 C          64.1297   89.9484   15.0305 C.2     1  UNL1        0.2535
      2 O          63.8985   90.5111   16.4017 O.2     1  UNL1       -0.2695
      3 N          63.8772   88.4940   14.7642 N.am    1  UNL1       -0.2550
      4 C          64.1395   88.0342   13.3607 C.3     1  UNL1        0.1045
      5 C          63.9852   86.6585   12.7831 C.3     1  UNL1        0.0929
      6 C          63.5304   85.4028   13.4662 C.3     1  UNL1        0.2843
      7 F          63.7927   84.9431   12.0627 F       1  UNL1       -0.1995
      8 F          63.1924   83.9426   13.5247 F       1  UNL1       -0.1995
      9 C          63.1177   85.2129   14.8957 C.2     1  UNL1        0.0402
     10 C          62.7112   83.8200   15.2761 C.2     1  UNL1        0.0161
     11 C          63.0578   86.2315   15.9952 C.ar    1  UNL1        0.0148
     12 C          62.5890   85.6212   17.2827 C.ar    1  UNL1        0.0011
     13 C          62.4582   86.4711   18.5117 C.ar    1  UNL1        0.0001
     14 C          62.7962   87.9313   18.4532 C.ar    1  UNL1        0.0013
     15 C          63.2650   88.5417   17.1657 C.ar    1  UNL1        0.0149
     16 C          63.3958   87.6917   15.9367 C.ar    1  UNL1        0.0539
     17 C          65.5807   92.6238   11.7159 C.ar    1  UNL1        0.0837
     18 C          64.2378   91.9634   11.6132 C.ar    1  UNL1        0.0193
     19 C          63.7542   91.0716   12.7181 C.ar    1  UNL1        0.0069
     20 C          64.6134   90.8402   13.9256 C.ar    1  UNL1        0.0645
     21 C          65.9563   91.5006   14.0283 C.ar    1  UNL1        0.0635
     22 CL         66.8155   91.2692   15.2359 Cl      1  UNL1       -0.0820
     23 C          66.4399   92.3924   12.9234 C.ar    1  UNL1        0.0307
     24 C          66.1230   96.7500    8.4661 C.3     1  UNL1        0.0540
     25 C          66.3137   95.4122    9.1172 C.ar    1  UNL1        0.0809
     26 C          67.3037   94.3637    8.7043 C.ar    1  UNL1        0.0371
     27 C          67.1496   93.1916    9.6275 C.ar    1  UNL1        0.1016
     28 N          66.0643   93.5156   10.6110 N.ar    1  UNL1       -0.2285
     29 N          65.5477   94.8880   10.2956 N.ar    1  UNL1       -0.1694
     30 C          62.7350   82.7253   14.2508 C.2     1  UNL1        0.0728
     31 O          63.9882   82.4539   13.4726 O.co2   1  UNL1       -0.5446
     32 O          61.5056   81.9021   14.0038 O.co2   1  UNL1       -0.5446
@<TRIPOS>UNITY_ATOM_ATTR
31 1
charge -1
@<TRIPOS>BOND
     1    24    25    1
     2    25    26   ar
     3    26    27   ar
     4    27    28   ar
     5    28    17    1
     6    17    18   ar
     7    18    19   ar
     8    19    20   ar
     9    20     1    1
    10     1     2    2
    11     1     3   am
    12     3     4    1
    13     4     5    1
    14     5     6    1
    15     6     7    1
    16     6     8    1
    17     6     9    1
    18     9    10    2
    19    10    30    1
    20    30    31   ar
    21    30    32   ar
    22     9    11    1
    23    11    12   ar
    24    12    13   ar
    25    13    14   ar
    26    14    15   ar
    27    15    16   ar
    28    20    21   ar
    29    21    22    1
    30    21    23   ar
    31    28    29   ar
    32    29    25   ar
    33    23    17   ar
    34    16     3    1
    35    16    11   ar
@<TRIPOS>MOLECULE
*****
 32 35 0 0 0
SMALL
GASTEIGER

@<TRIPOS>ATOM
      1 C          58.8996   94.7106   -0.6548 C.2     1  UNL1        0.2535
      2 O          59.1375   94.6762    0.8259 O.2     1  UNL1       -0.2695
      3 N          60.0341   94.4572   -1.6028 N.am    1  UNL1       -0.2550
      4 C          59.6886   94.5149   -3.0613 C.3     1  UNL1        0.1045
      5 C          60.5879   94.3092   -4.2442 C.3     1  UNL1        0.0929
      6 C          62.0545   93.9951   -4.2607 C.3     1  UNL1        0.2843
      7 F          61.7091   94.0527   -5.7192 F       1  UNL1       -0.1995
      8 F          63.3675   93.7066   -4.9263 F       1  UNL1       -0.1995
      9 C          62.9842   93.8091   -3.0983 C.2     1  UNL1        0.0402
     10 C          64.4097   93.5000   -3.4481 C.2     1  UNL1        0.0161
     11 C          62.6769   93.8912   -1.6324 C.ar    1  UNL1        0.0148
     12 C          63.8997   93.6387   -0.8012 C.ar    1  UNL1        0.0011
     13 C          63.8096   93.6748    0.6957 C.ar    1  UNL1        0.0001
     14 C          62.4966   93.9632    1.3612 C.ar    1  UNL1        0.0013
     15 C          61.2739   94.2157    0.5300 C.ar    1  UNL1        0.0149
     16 C          61.3640   94.1797   -0.9668 C.ar    1  UNL1        0.0539
     17 C          54.7824   95.5740   -2.2526 C.ar    1  UNL1        0.0837
     18 C          55.7319   96.7022   -1.9773 C.ar    1  UNL1        0.0193
     19 C          57.1043   96.4143   -1.4447 C.ar    1  UNL1        0.0069
     20 C          57.5272   94.9984   -1.1874 C.ar    1  UNL1        0.0645
     21 C          56.5777   93.8703   -1.4627 C.ar    1  UNL1        0.0635
     22 CL         57.0007   92.4543   -1.2054 Cl      1  UNL1       -0.0820
     23 C          55.2053   94.1581   -1.9953 C.ar    1  UNL1        0.0307
     24 C          50.7738   96.5145   -5.5582 C.3     1  UNL1        0.0540
     25 C          51.5674   96.2942   -4.3046 C.ar    1  UNL1        0.0809
     26 C          51.0287   96.3153   -2.9049 C.ar    1  UNL1        0.0371
     27 C          52.1674   96.0481   -1.9658 C.ar    1  UNL1        0.1016
     28 N          53.4100   95.8619   -2.7852 N.ar    1  UNL1       -0.2285
     29 N          53.0392   96.0139   -4.2306 N.ar    1  UNL1       -0.1694
     30 C          64.8234   93.3954   -4.8862 C.2     1  UNL1        0.0728
     31 O          65.2922   94.6153   -5.6223 O.co2   1  UNL1       -0.5446
     32 O          64.7682   92.0709   -5.5880 O.co2   1  UNL1       -0.5446
@<TRIPOS>UNITY_ATOM_ATTR
31 1
charge -1
@<TRIPOS>BOND
     1    24    25    1
     2    25    26   ar
     3    26    27   ar
     4    27    28   ar
     5    28    17    1
     6    17    18   ar
     7    18    19   ar
     8    19    20   ar
     9    20     1    1
    10     1     2    2
    11     1     3   am
    12     3     4    1
    13     4     5    1
    14     5     6    1
    15     6     7    1
    16     6     8    1
    17     6     9    1
    18     9    10    2
    19    10    30    1
    20    30    31   ar
    21    30    32   ar
    22     9    11    1
    23    11    12   ar
    24    12    13   ar
    25    13    14   ar
    26    14    15   ar
    27    15    16   ar
    28    20    21   ar
    29    21    22    1
    30    21    23   ar
    31    28    29   ar
    32    29    25   ar
    33    23    17   ar
    34    16     3    1
    35    16    11   ar
@<TRIPOS>MOLECULE
*****
 32 35 0 0 0
SMALL
GASTEIGER

@<TRIPOS>ATOM
      1 C          59.6837   95.6200   -2.3140 C.2     1  UNL1        0.2535
      2 O          60.6041   96.3720   -3.2292 O.2     1  UNL1       -0.2695
      3 N          60.2476   94.7965   -1.1941 N.am    1  UNL1       -0.2550
      4 C          59.2414   94.0853   -0.3388 C.3     1  UNL1        0.1045
      5 C          59.4823   93.1950    0.8443 C.3     1  UNL1        0.0929
      6 C          60.7888   92.7962    1.4640 C.3     1  UNL1        0.2843
      7 F          59.7826   92.0849    2.3194 F       1  UNL1       -0.1995
      8 F          61.6475   92.0808    2.4645 F       1  UNL1       -0.1995
      9 C          62.1770   93.1891    1.0538 C.2     1  UNL1        0.0402
     10 C          63.2875   92.6177    1.8847 C.2     1  UNL1        0.0161
     11 C          62.6018   94.0779   -0.0775 C.ar    1  UNL1        0.0148
     12 C          64.0946   94.2106   -0.1393 C.ar    1  UNL1        0.0011
     13 C          64.7287   95.0587   -1.2017 C.ar    1  UNL1        0.0001
     14 C          63.8700   95.7741   -2.2021 C.ar    1  UNL1        0.0013
     15 C          62.3772   95.6413   -2.1402 C.ar    1  UNL1        0.0149
     16 C          61.7431   94.7933   -1.0779 C.ar    1  UNL1        0.0539
     17 C          55.2310   95.8344   -2.9280 C.ar    1  UNL1        0.0837
     18 C          55.9198   96.8544   -2.0706 C.ar    1  UNL1        0.0193
     19 C          57.4041   96.7829   -1.8660 C.ar    1  UNL1        0.0069
     20 C          58.1994   95.6914   -2.5186 C.ar    1  UNL1        0.0645
     21 C          57.5106   94.6714   -3.3760 C.ar    1  UNL1        0.0635
     22 CL         58.3060   93.5799   -4.0286 Cl      1  UNL1       -0.0820
     23 C          56.0263   94.7429   -3.5806 C.ar    1  UNL1        0.0307
     24 C          50.4944   96.3416   -5.2058 C.3     1  UNL1        0.0540
     25 C          51.5695   96.1390   -4.1796 C.ar    1  UNL1        0.0809
     26 C          51.3558   95.8926   -2.7155 C.ar    1  UNL1        0.0371
     27 C          52.7014   95.7485   -2.0684 C.ar    1  UNL1        0.1016
     28 N          53.7467   95.9058   -3.1326 N.ar    1  UNL1       -0.2285
     29 N          53.0472   96.1471   -4.4374 N.ar    1  UNL1       -0.1694
     30 C          62.9714   91.7160    3.0410 C.2     1  UNL1        0.0728
     31 O          63.8151   90.5029    3.2987 O.co2   1  UNL1       -0.5446
     32 O          61.8114   92.0274    3.9397 O.co2   1  UNL1       -0.5446
@<TRIPOS>UNITY_ATOM_ATTR
31 1
charge -1
@<TRIPOS>BOND
     1    24    25    1
     2    25    26   ar
     3    26    27   ar
     4    27    28   ar
     5    28    17    1
     6    17    18   ar
     7    18    19   ar
     8    19    20   ar
     9    20     1    1
    10     1     2    2
    11     1     3   am
    12     3     4    1
    13     4     5    1
    14     5     6    1
    15     6     7    1
    16     6     8    1
    17     6     9    1
    18     9    10    2
    19    10    30    1
    20    30    31   ar
    21    30    32   ar
    22     9    11    1
    23    11    12   ar
    24    12    13   ar
    25    13    14   ar
    26    14    15   ar
    27    15    16   ar
    28    20    21   ar
    29    21    22    1
    30    21    23   ar
    31    28    29   ar
    32    29    25   ar
    33    23    17   ar
    34    16     3    1
    35    16    11   ar
@<TRIPOS>MOLECULE
*****
 32 35 0 0 0
SMALL
GASTEIGER

@<TRIPOS>ATOM
      1 C          63.5772   94.4823    0.6678 C.2     1  UNL1        0.2535
      2 O          64.7839   95.1986    1.1979 O.2     1  UNL1       -0.2695
      3 N          63.2832   94.4954   -0.8031 N.am    1  UNL1       -0.2550
      4 C          62.0532   93.7491   -1.2275 C.3     1  UNL1        0.1045
      5 C          61.4944   93.5762   -2.6088 C.3     1  UNL1        0.0929
      6 C          62.0274   94.1068   -3.9067 C.3     1  UNL1        0.2843
      7 F          60.7974   93.3605   -4.3311 F       1  UNL1       -0.1995
      8 F          62.0131   94.3053   -5.3934 F       1  UNL1       -0.1995
      9 C          63.2510   94.9414   -4.1437 C.2     1  UNL1        0.0402
     10 C          63.5171   95.3154   -5.5718 C.2     1  UNL1        0.0161
     11 C          64.2438   95.4516   -3.1416 C.ar    1  UNL1        0.0148
     12 C          65.3263   96.2529   -3.8017 C.ar    1  UNL1        0.0011
     13 C          66.4232   96.8558   -2.9751 C.ar    1  UNL1        0.0001
     14 C          66.4376   96.6573   -1.4884 C.ar    1  UNL1        0.0013
     15 C          65.3550   95.8560   -0.8283 C.ar    1  UNL1        0.0149
     16 C          64.2581   95.2531   -1.6549 C.ar    1  UNL1        0.0539
     17 C          60.8392   92.2943    3.4901 C.ar    1  UNL1        0.0837
     18 C          62.2113   91.7572    3.2090 C.ar    1  UNL1        0.0193
     19 C          63.1239   92.4866    2.2683 C.ar    1  UNL1        0.0069
     20 C          62.6645   93.7529    1.6086 C.ar    1  UNL1        0.0645
     21 C          61.2924   94.2900    1.8897 C.ar    1  UNL1        0.0635
     22 CL         60.8331   95.5564    1.2300 Cl      1  UNL1       -0.0820
     23 C          60.3798   93.5606    2.8305 C.ar    1  UNL1        0.0307
     24 C          59.0272   88.9089    7.1146 C.3     1  UNL1        0.0540
     25 C          59.0936   90.0088    6.0970 C.ar    1  UNL1        0.0809
     26 C          57.9504   90.8763    5.6604 C.ar    1  UNL1        0.0371
     27 C          58.4652   91.8380    4.6308 C.ar    1  UNL1        0.1016
     28 N          59.9265   91.5649    4.4310 N.ar    1  UNL1       -0.2285
     29 N          60.3149   90.4345    5.3371 N.ar    1  UNL1       -0.1694
     30 C          62.5849   94.8560   -6.6535 C.2     1  UNL1        0.0728
     31 O          62.6836   93.4566   -7.1844 O.co2   1  UNL1       -0.5446
     32 O          61.5539   95.7961   -7.2043 O.co2   1  UNL1       -0.5446
@<TRIPOS>UNITY_ATOM_ATTR
31 1
charge -1
@<TRIPOS>BOND
     1    24    25    1
     2    25    26   ar
     3    26    27   ar
     4    27    28   ar
     5    28    17    1
     6    17    18   ar
     7    18    19   ar
     8    19    20   ar
     9    20     1    1
    10     1     2    2
    11     1     3   am
    12     3     4    1
    13     4     5    1
    14     5     6    1
    15     6     7    1
    16     6     8    1
    17     6     9    1
    18     9    10    2
    19    10    30    1
    20    30    31   ar
    21    30    32   ar
    22     9    11    1
    23    11    12   ar
    24    12    13   ar
    25    13    14   ar
    26    14    15   ar
    27    15    16   ar
    28    20    21   ar
    29    21    22    1
    30    21    23   ar
    31    28    29   ar
    32    29    25   ar
    33    23    17   ar
    34    16     3    1
    35    16    11   ar
@<TRIPOS>MOLECULE
*****
 32 35 0 0 0
SMALL
GASTEIGER

@<TRIPOS>ATOM
      1 C          59.4510   94.6671   -4.2419 C.2     1  UNL1        0.2535
      2 O          60.0618   94.5880   -5.6097 O.2     1  UNL1       -0.2695
      3 N          60.3023   94.4477   -3.0264 N.am    1  UNL1       -0.2550
      4 C          59.5933   94.5491   -1.7085 C.3     1  UNL1        0.1045
      5 C          60.1570   94.3837   -0.3282 C.3     1  UNL1        0.0929
      6 C          61.5687   94.0762    0.0749 C.3     1  UNL1        0.2843
      7 F          60.8597   94.1775    1.3929 F       1  UNL1       -0.1995
      8 F          62.6649   93.8137    1.0646 F       1  UNL1       -0.1995
      9 C          62.7654   93.8581   -0.8027 C.2     1  UNL1        0.0402
     10 C          64.0517   93.5657   -0.0884 C.2     1  UNL1        0.0161
     11 C          62.8461   93.8936   -2.3002 C.ar    1  UNL1        0.0148
     12 C          64.2406   93.6205   -2.7805 C.ar    1  UNL1        0.0011
     13 C          64.5389   93.6098   -4.2504 C.ar    1  UNL1        0.0001
     14 C          63.4427   93.8723   -5.2401 C.ar    1  UNL1        0.0013
     15 C          62.0482   94.1454   -4.7598 C.ar    1  UNL1        0.0149
     16 C          61.7499   94.1560   -3.2898 C.ar    1  UNL1        0.0539
     17 C          55.0649   95.5630   -3.7850 C.ar    1  UNL1        0.0837
     18 C          56.0494   96.6862   -3.9230 C.ar    1  UNL1        0.0193
     19 C          57.5114   96.3876   -4.0752 C.ar    1  UNL1        0.0069
     20 C          57.9889   94.9658   -4.0896 C.ar    1  UNL1        0.0645
     21 C          57.0044   93.8425   -3.9516 C.ar    1  UNL1        0.0635
     22 CL         57.4820   92.4206   -3.9660 Cl      1  UNL1       -0.0820
     23 C          55.5424   94.1411   -3.7994 C.ar    1  UNL1        0.0307
     24 C          50.0324   96.7143   -4.8940 C.3     1  UNL1        0.0540
     25 C          51.2895   96.3908   -4.1424 C.ar    1  UNL1        0.0809
     26 C          51.4161   96.2513   -2.6543 C.ar    1  UNL1        0.0371
     27 C          52.8457   95.9243   -2.3393 C.ar    1  UNL1        0.1016
     28 N          53.6027   95.8616   -3.6327 N.ar    1  UNL1       -0.2285
     29 N          52.6410   96.1499   -4.7471 N.ar    1  UNL1       -0.1694
     30 C          64.0808   93.5073    1.4102 C.2     1  UNL1        0.0728
     31 O          64.5222   94.7043    2.1989 O.co2   1  UNL1       -0.5446
     32 O          63.6686   92.2518    2.1200 O.co2   1  UNL1       -0.5446
@<TRIPOS>UNITY_ATOM_ATTR
31 1
charge -1
@<TRIPOS>BOND
     1    24    25    1
     2    25    26   ar
     3    26    27   ar
     4    27    28   ar
     5    28    17    1
     6    17    18   ar
     7    18    19   ar
     8    19    20   ar
     9    20     1    1
    10     1     2    2
    11     1     3   am
    12     3     4    1
    13     4     5    1
    14     5     6    1
    15     6     7    1
    16     6     8    1
    17     6     9    1
    18     9    10    2
    19    10    30    1
    20    30    31   ar
    21    30    32   ar
    22     9    11    1
    23    11    12   ar
    24    12    13   ar
    25    13    14   ar
    26    14    15   ar
    27    15    16   ar
    28    20    21   ar
    29    21    22    1
    30    21    23   ar
    31    28    29   ar
    32    29    25   ar
    33    23    17   ar
    34    16     3    1
    35    16    11   ar
@<TRIPOS>MOLECULE
*****
 32 35 0 0 0
SMALL
GASTEIGER

@<TRIPOS>ATOM
      1 C          60.9894   93.6939    1.7405 C.2     1  UNL1        0.2535
      2 O          62.1318   94.6633    1.8145 O.2     1  UNL1       -0.2695
      3 N          60.1219   93.6488    0.5176 N.am    1  UNL1       -0.2550
      4 C          59.0084   92.6442    0.5463 C.3     1  UNL1        0.1045
      5 C          57.9806   92.3571   -0.5079 C.3     1  UNL1        0.0929
      6 C          57.8124   93.0035   -1.8510 C.3     1  UNL1        0.2843
      7 F          56.6989   91.9989   -1.8223 F       1  UNL1       -0.1995
      8 F          57.1487   93.2029   -3.1813 F       1  UNL1       -0.1995
      9 C          58.6306   94.0969   -2.4716 C.2     1  UNL1        0.0402
     10 C          58.2040   94.5307   -3.8426 C.2     1  UNL1        0.0161
     11 C          59.8190   94.8138   -1.9025 C.ar    1  UNL1        0.0148
     12 C          60.3451   95.8452   -2.8560 C.ar    1  UNL1        0.0011
     13 C          61.5349   96.6773   -2.4792 C.ar    1  UNL1        0.0001
     14 C          62.1986   96.4779   -1.1489 C.ar    1  UNL1        0.0013
     15 C          61.6725   95.4464   -0.1954 C.ar    1  UNL1        0.0149
     16 C          60.4827   94.6144   -0.5722 C.ar    1  UNL1        0.0539
     17 C          60.1650   90.9209    5.1873 C.ar    1  UNL1        0.0837
     18 C          59.1152   91.8948    4.7405 C.ar    1  UNL1        0.0193
     19 C          59.3901   92.8190    3.5916 C.ar    1  UNL1        0.0069
     20 C          60.7146   92.7695    2.8895 C.ar    1  UNL1        0.0645
     21 C          61.7644   91.7957    3.3363 C.ar    1  UNL1        0.0635
     22 CL         63.0890   91.7462    2.6341 Cl      1  UNL1       -0.0820
     23 C          61.4895   90.8714    4.4852 C.ar    1  UNL1        0.0307
     24 C          60.2453   88.7034    9.9787 C.3     1  UNL1        0.0540
     25 C          59.9270   88.9772    8.5387 C.ar    1  UNL1        0.0809
     26 C          59.0074   88.1711    7.6701 C.ar    1  UNL1        0.0371
     27 C          58.9847   88.8011    6.3090 C.ar    1  UNL1        0.1016
     28 N          59.8902   89.9966    6.3363 N.ar    1  UNL1       -0.2285
     29 N          60.4726   90.1055    7.7143 N.ar    1  UNL1       -0.1694
     30 C          57.0264   93.8776   -4.5034 C.2     1  UNL1        0.0728
     31 O          57.1501   92.4871   -5.0520 O.co2   1  UNL1       -0.5446
     32 O          55.7250   94.6151   -4.6155 O.co2   1  UNL1       -0.5446
@<TRIPOS>UNITY_ATOM_ATTR
31 1
charge -1
@<TRIPOS>BOND
     1    24    25    1
     2    25    26   ar
     3    26    27   ar
     4    27    28   ar
     5    28    17    1
     6    17    18   ar
     7    18    19   ar
     8    19    20   ar
     9    20     1    1
    10     1     2    2
    11     1     3   am
    12     3     4    1
    13     4     5    1
    14     5     6    1
    15     6     7    1
    16     6     8    1
    17     6     9    1
    18     9    10    2
    19    10    30    1
    20    30    31   ar
    21    30    32   ar
    22     9    11    1
    23    11    12   ar
    24    12    13   ar
    25    13    14   ar
    26    14    15   ar
    27    15    16   ar
    28    20    21   ar
    29    21    22    1
    30    21    23   ar
    31    28    29   ar
    32    29    25   ar
    33    23    17   ar
    34    16     3    1
    35    16    11   ar
