@<TRIPOS>MOLECULE
*****
 27 31 0 0 0
SMALL
GASTEIGER

@<TRIPOS>ATOM
      1 C          60.1269   87.9333    8.1691 C.3     1  UNL1        0.0887
      2 O          64.9269   82.6471   10.3675 O.2     1  UNL1       -0.2748
      3 C          63.9282   83.4342   11.1632 C.2     1  UNL1        0.2277
      4 N          63.0652   84.4556   10.4835 N.am    1  UNL1       -0.2795
      5 C          62.0281   85.3141   11.1447 C.3     1  UNL1        0.0935
      6 C          61.4097   86.1869   10.0930 C.3     1  UNL1        0.0233
      7 C          60.9899   86.9119    8.8488 C.3     1  UNL1        0.0230
      8 C          62.0647   85.8678    8.7819 C.3     1  UNL1        0.0233
      9 C          63.0879   84.7977    9.0232 C.3     1  UNL1        0.0935
     10 C          63.7925   83.1999   12.6385 C.3     1  UNL1        0.1087
     11 C          64.4563   83.9962   13.7226 C.3     1  UNL1        0.0437
     12 C          64.0431   83.4165   15.0428 C.3     1  UNL1        0.1428
     13 O          63.1239   82.2619   14.7749 O.3     1  UNL1       -0.3533
     14 C          62.9690   82.1279   13.2889 C.3     1  UNL1        0.1512
     15 N          60.1507   89.3609    8.6290 N.pl3   1  UNL1       -0.3130
     16 H          59.7402   90.0635    8.0749 H       1  UNL1        0.1487
     17 C          60.7999   89.7180    9.9333 C.ar    1  UNL1        0.1599
     18 N          62.1998   90.2264   10.1113 N.ar    1  UNL1       -0.2227
     19 C          62.4281   90.4519   11.5766 C.ar    1  UNL1        0.1073
     20 C          61.1694   90.0828   12.3042 C.ar    1  UNL1        0.0588
     21 S          60.1630   89.6292   11.2885 S.2     1  UNL1       -0.0512
     22 C          63.6932   90.9577   12.2042 C.ar    1  UNL1        0.0995
     23 C          64.1168   90.4512   13.5510 C.ar    1  UNL1        0.0207
     24 C          65.3819   90.9571   14.1785 C.ar    1  UNL1        0.0032
     25 C          66.2233   91.9694   13.4593 C.ar    1  UNL1        0.0207
     26 C          65.7995   92.4759   12.1124 C.ar    1  UNL1        0.0989
     27 N          64.5346   91.9701   11.4849 N.ar    1  UNL1       -0.2423
@<TRIPOS>BOND
     1     2     3    2
     2     3    10    1
     3    10    11    1
     4    11    12    1
     5    12    13    1
     6    13    14    1
     7     3     4   am
     8     4     5    1
     9     6     5    1
    10     6     7    1
    11     7     1    1
    12     1    15    1
    13    15    17    1
    14    17    18   ar
    15    18    19   ar
    16    19    22    1
    17    22    23   ar
    18    23    24   ar
    19    24    25   ar
    20    25    26   ar
    21    26    27   ar
    22    19    20   ar
    23    20    21   ar
    24     7     8    1
    25     8     9    1
    26    14    10    1
    27     9     4    1
    28     8     6    1
    29    21    17   ar
    30    27    22   ar
    31    15    16    1
@<TRIPOS>MOLECULE
*****
 27 31 0 0 0
SMALL
GASTEIGER

@<TRIPOS>ATOM
      1 C          60.0848   89.5391   10.4434 C.3     1  UNL1        0.0887
      2 O          66.3336   92.1944   13.5609 O.2     1  UNL1       -0.2748
      3 C          65.8398   92.3010   12.1485 C.2     1  UNL1        0.2277
      4 N          64.5333   91.6740   11.7614 N.am    1  UNL1       -0.2795
      5 C          63.9143   91.6979   10.3953 C.3     1  UNL1        0.0935
      6 C          62.6148   90.9517   10.4621 C.3     1  UNL1        0.0233
      7 C          61.3913   90.1661   10.8305 C.3     1  UNL1        0.0230
      8 C          62.4307   90.4665   11.8694 C.3     1  UNL1        0.0233
      9 C          63.6163   90.9130   12.6725 C.3     1  UNL1        0.0935
     10 C          66.6525   93.0347   11.1232 C.3     1  UNL1        0.1087
     11 C          67.5774   92.4113   10.1202 C.3     1  UNL1        0.0437
     12 C          68.1796   93.5119    9.2981 C.3     1  UNL1        0.1428
     13 O          67.6269   94.8156    9.7929 O.3     1  UNL1       -0.3533
     14 C          66.6832   94.5207   10.9209 C.3     1  UNL1        0.1512
     15 N          60.0692   88.2356    9.7012 N.pl3   1  UNL1       -0.3130
     16 H          59.4498   88.1059    8.9470 H       1  UNL1        0.1487
     17 C          60.9973   87.1297   10.1081 C.ar    1  UNL1        0.1599
     18 N          61.2654   86.6755   11.5124 N.ar    1  UNL1       -0.2227
     19 C          62.2540   85.5489   11.4543 C.ar    1  UNL1        0.1073
     20 C          62.5969   85.3068   10.0142 C.ar    1  UNL1        0.0588
     21 S          61.8202   86.2838    9.1822 S.2     1  UNL1       -0.0512
     22 C          62.8034   84.7965   12.6300 C.ar    1  UNL1        0.0995
     23 C          62.7717   83.2969   12.6419 C.ar    1  UNL1        0.0207
     24 C          63.3211   82.5445   13.8176 C.ar    1  UNL1        0.0032
     25 C          63.9021   83.2917   14.9813 C.ar    1  UNL1        0.0207
     26 C          63.9337   84.7914   14.9693 C.ar    1  UNL1        0.0989
     27 N          63.3844   85.5438   13.7937 N.ar    1  UNL1       -0.2423
@<TRIPOS>BOND
     1     2     3    2
     2     3    10    1
     3    10    11    1
     4    11    12    1
     5    12    13    1
     6    13    14    1
     7     3     4   am
     8     4     5    1
     9     6     5    1
    10     6     7    1
    11     7     1    1
    12     1    15    1
    13    15    17    1
    14    17    18   ar
    15    18    19   ar
    16    19    22    1
    17    22    23   ar
    18    23    24   ar
    19    24    25   ar
    20    25    26   ar
    21    26    27   ar
    22    19    20   ar
    23    20    21   ar
    24     7     8    1
    25     8     9    1
    26    14    10    1
    27     9     4    1
    28     8     6    1
    29    21    17   ar
    30    27    22   ar
    31    15    16    1
@<TRIPOS>MOLECULE
*****
 27 31 0 0 0
SMALL
GASTEIGER

@<TRIPOS>ATOM
      1 C          60.6430   89.6974   10.8468 C.3     1  UNL1        0.0887
      2 O          67.0885   93.4669   11.0968 O.2     1  UNL1       -0.2748
      3 C          66.3475   92.7502   12.1864 C.2     1  UNL1        0.2277
      4 N          65.0524   92.0572   11.8823 N.am    1  UNL1       -0.2795
      5 C          64.2038   91.3041   12.8635 C.3     1  UNL1        0.0935
      6 C          63.0056   90.7770   12.1311 C.3     1  UNL1        0.0233
      7 C          61.9380   90.3904   11.1509 C.3     1  UNL1        0.0230
      8 C          63.1136   91.2043   10.6974 C.3     1  UNL1        0.0233
      9 C          64.3786   91.9955   10.5436 C.3     1  UNL1        0.0935
     10 C          66.9015   92.7267   13.5801 C.3     1  UNL1        0.1087
     11 C          67.6502   91.5910   14.2124 C.3     1  UNL1        0.0437
     12 C          68.0154   91.9972   15.6093 C.3     1  UNL1        0.1428
     13 O          67.4925   93.3839   15.8406 O.3     1  UNL1       -0.3533
     14 C          66.8041   93.8348   14.5865 C.3     1  UNL1        0.1512
     15 N          60.6009   88.6021    9.8226 N.pl3   1  UNL1       -0.3130
     16 H          60.1135   88.7365    8.9779 H       1  UNL1        0.1487
     17 C          61.3015   87.3021   10.0856 C.ar    1  UNL1        0.1599
     18 N          61.3827   86.5957   11.4063 N.ar    1  UNL1       -0.2227
     19 C          62.1753   85.3373   11.2109 C.ar    1  UNL1        0.1073
     20 C          62.5840   85.2660    9.7694 C.ar    1  UNL1        0.0588
     21 S          62.0439   86.4803    9.0739 S.2     1  UNL1       -0.0512
     22 C          62.5019   84.3275   12.2709 C.ar    1  UNL1        0.0995
     23 C          62.8373   82.9172   11.8854 C.ar    1  UNL1        0.0207
     24 C          63.1639   81.9074   12.9455 C.ar    1  UNL1        0.0032
     25 C          63.1551   82.3079   14.3910 C.ar    1  UNL1        0.0207
     26 C          62.8198   83.7182   14.7765 C.ar    1  UNL1        0.0989
     27 N          62.4932   84.7280   13.7165 N.ar    1  UNL1       -0.2423
@<TRIPOS>BOND
     1     2     3    2
     2     3    10    1
     3    10    11    1
     4    11    12    1
     5    12    13    1
     6    13    14    1
     7     3     4   am
     8     4     5    1
     9     6     5    1
    10     6     7    1
    11     7     1    1
    12     1    15    1
    13    15    17    1
    14    17    18   ar
    15    18    19   ar
    16    19    22    1
    17    22    23   ar
    18    23    24   ar
    19    24    25   ar
    20    25    26   ar
    21    26    27   ar
    22    19    20   ar
    23    20    21   ar
    24     7     8    1
    25     8     9    1
    26    14    10    1
    27     9     4    1
    28     8     6    1
    29    21    17   ar
    30    27    22   ar
    31    15    16    1
@<TRIPOS>MOLECULE
*****
 27 31 0 0 0
SMALL
GASTEIGER

@<TRIPOS>ATOM
      1 C          63.9305   83.6777   15.6202 C.3     1  UNL1        0.0887
      2 O          63.1464   91.0263   16.7156 O.2     1  UNL1       -0.2748
      3 C          63.8144   90.2839   15.5964 C.2     1  UNL1        0.2277
      4 N          63.8407   88.7841   15.6018 N.am    1  UNL1       -0.2795
      5 C          64.4679   87.9096   14.5569 C.3     1  UNL1        0.0935
      6 C          64.2593   86.4806   14.9624 C.3     1  UNL1        0.0233
      7 C          63.9041   85.1774   15.6148 C.3     1  UNL1        0.0230
      8 C          63.5032   86.4719   16.2579 C.3     1  UNL1        0.0233
      9 C          63.2445   87.8956   16.6531 C.3     1  UNL1        0.0935
     10 C          64.4560   91.0412   14.4718 C.3     1  UNL1        0.1087
     11 C          65.7880   91.7294   14.5191 C.3     1  UNL1        0.0437
     12 C          66.0335   92.3568   13.1790 C.3     1  UNL1        0.1428
     13 O          64.8532   92.0566   12.3034 O.3     1  UNL1       -0.3533
     14 C          63.8782   91.2435   13.1024 C.3     1  UNL1        0.1512
     15 N          63.2851   82.9122   14.5032 N.pl3   1  UNL1       -0.3130
     16 H          62.9985   81.9812   14.6458 H       1  UNL1        0.1487
     17 C          63.0766   83.5652   13.1690 C.ar    1  UNL1        0.1599
     18 N          62.1560   84.7148   12.8843 N.ar    1  UNL1       -0.2227
     19 C          62.2625   85.0433   11.4246 C.ar    1  UNL1        0.1073
     20 C          63.2488   84.0967   10.8072 C.ar    1  UNL1        0.0588
     21 S          63.7519   83.1832   11.8853 S.2     1  UNL1       -0.0512
     22 C          61.5141   86.1279   10.7081 C.ar    1  UNL1        0.0995
     23 C          61.3970   86.0967    9.2130 C.ar    1  UNL1        0.0207
     24 C          60.6485   87.1814    8.4966 C.ar    1  UNL1        0.0032
     25 C          60.0171   88.2973    9.2752 C.ar    1  UNL1        0.0207
     26 C          60.1342   88.3284   10.7703 C.ar    1  UNL1        0.0989
     27 N          60.8826   87.2438   11.4868 N.ar    1  UNL1       -0.2423
@<TRIPOS>BOND
     1     2     3    2
     2     3    10    1
     3    10    11    1
     4    11    12    1
     5    12    13    1
     6    13    14    1
     7     3     4   am
     8     4     5    1
     9     6     5    1
    10     6     7    1
    11     7     1    1
    12     1    15    1
    13    15    17    1
    14    17    18   ar
    15    18    19   ar
    16    19    22    1
    17    22    23   ar
    18    23    24   ar
    19    24    25   ar
    20    25    26   ar
    21    26    27   ar
    22    19    20   ar
    23    20    21   ar
    24     7     8    1
    25     8     9    1
    26    14    10    1
    27     9     4    1
    28     8     6    1
    29    21    17   ar
    30    27    22   ar
    31    15    16    1
@<TRIPOS>MOLECULE
*****
 27 31 0 0 0
SMALL
GASTEIGER

@<TRIPOS>ATOM
      1 C          64.1318   89.9627   14.7530 C.3     1  UNL1        0.0887
      2 O          64.2265   82.5201   15.3980 O.2     1  UNL1       -0.2748
      3 C          63.9941   83.3808   14.1916 C.2     1  UNL1        0.2277
      4 N          64.0254   84.8750   14.3191 N.am    1  UNL1       -0.2795
      5 C          63.8121   85.8594   13.2075 C.3     1  UNL1        0.0935
      6 C          63.9303   87.2399   13.7820 C.3     1  UNL1        0.0233
      7 C          64.1006   88.4685   14.6256 C.3     1  UNL1        0.0230
      8 C          64.2167   87.1089   15.2485 C.3     1  UNL1        0.0233
      9 C          64.2754   85.6473   15.5805 C.3     1  UNL1        0.0935
     10 C          63.7305   82.7472   12.8579 C.3     1  UNL1        0.1087
     11 C          64.4907   83.0089   11.5916 C.3     1  UNL1        0.0437
     12 C          63.8904   82.1641   10.5073 C.3     1  UNL1        0.1428
     13 O          62.7590   81.3801   11.1034 O.3     1  UNL1       -0.3533
     14 C          62.6601   81.7404   12.5561 C.3     1  UNL1        0.1512
     15 N          63.1497   90.8013   13.9898 N.pl3   1  UNL1       -0.3130
     16 H          62.6969   91.5549   14.4329 H       1  UNL1        0.1487
     17 C          62.8574   90.4916   12.5515 C.ar    1  UNL1        0.1599
     18 N          61.9232   89.4304   12.0503 N.ar    1  UNL1       -0.2227
     19 C          61.9366   89.4717   10.5510 C.ar    1  UNL1        0.1073
     20 C          62.8790   90.5584   10.1255 C.ar    1  UNL1        0.0588
     21 S          63.4481   91.1887   11.3619 S.2     1  UNL1       -0.0512
     22 C          61.1462   88.5824    9.6374 C.ar    1  UNL1        0.0995
     23 C          61.3563   87.0976    9.6696 C.ar    1  UNL1        0.0207
     24 C          60.5659   86.2084    8.7560 C.ar    1  UNL1        0.0032
     25 C          59.5655   86.8040    7.8102 C.ar    1  UNL1        0.0207
     26 C          59.3554   88.2889    7.7781 C.ar    1  UNL1        0.0989
     27 N          60.1457   89.1781    8.6917 N.ar    1  UNL1       -0.2423
@<TRIPOS>BOND
     1     2     3    2
     2     3    10    1
     3    10    11    1
     4    11    12    1
     5    12    13    1
     6    13    14    1
     7     3     4   am
     8     4     5    1
     9     6     5    1
    10     6     7    1
    11     7     1    1
    12     1    15    1
    13    15    17    1
    14    17    18   ar
    15    18    19   ar
    16    19    22    1
    17    22    23   ar
    18    23    24   ar
    19    24    25   ar
    20    25    26   ar
    21    26    27   ar
    22    19    20   ar
    23    20    21   ar
    24     7     8    1
    25     8     9    1
    26    14    10    1
    27     9     4    1
    28     8     6    1
    29    21    17   ar
    30    27    22   ar
    31    15    16    1
@<TRIPOS>MOLECULE
*****
 27 31 0 0 0
SMALL
GASTEIGER

@<TRIPOS>ATOM
      1 C          61.4158   89.0933   10.1725 C.3     1  UNL1        0.0887
      2 O          64.2711   82.1947    9.9007 O.2     1  UNL1       -0.2748
      3 C          63.5397   82.8929   11.0087 C.2     1  UNL1        0.2277
      4 N          63.0576   84.3005   10.8189 N.am    1  UNL1       -0.2795
      5 C          62.3162   85.1226   11.8311 C.3     1  UNL1        0.0935
      6 C          62.0325   86.4633   11.2212 C.3     1  UNL1        0.0233
      7 C          61.8980   87.6857   10.3623 C.3     1  UNL1        0.0230
      8 C          62.5986   86.4699    9.8322 C.3     1  UNL1        0.0233
      9 C          63.2321   85.1332    9.5835 C.3     1  UNL1        0.0935
     10 C          63.2906   82.1833   12.3066 C.3     1  UNL1        0.1087
     11 C          62.3728   81.0145   12.5105 C.3     1  UNL1        0.0437
     12 C          62.4305   80.6269   13.9584 C.3     1  UNL1        0.1428
     13 O          63.3840   81.5561   14.6494 O.3     1  UNL1       -0.3533
     14 C          63.9155   82.5180   13.6285 C.3     1  UNL1        0.1512
     15 N          61.5251   90.0815   11.2958 N.pl3   1  UNL1       -0.3130
     16 H          60.7479   90.2576   11.8738 H       1  UNL1        0.1487
     17 C          62.8186   90.8012   11.5383 C.ar    1  UNL1        0.1599
     18 N          63.6101   91.5609   10.5154 N.ar    1  UNL1       -0.2227
     19 C          64.8284   92.1169   11.1912 C.ar    1  UNL1        0.1073
     20 C          64.7898   91.7007   12.6318 C.ar    1  UNL1        0.0588
     21 S          63.5477   90.8876   12.8464 S.2     1  UNL1       -0.0512
     22 C          65.8975   92.9437   10.5407 C.ar    1  UNL1        0.0995
     23 C          67.1481   92.2886   10.0339 C.ar    1  UNL1        0.0207
     24 C          68.2172   93.1156    9.3834 C.ar    1  UNL1        0.0032
     25 C          68.0358   94.5976    9.2397 C.ar    1  UNL1        0.0207
     26 C          66.7851   95.2527    9.7465 C.ar    1  UNL1        0.0989
     27 N          65.7161   94.4259   10.3970 N.ar    1  UNL1       -0.2423
@<TRIPOS>BOND
     1     2     3    2
     2     3    10    1
     3    10    11    1
     4    11    12    1
     5    12    13    1
     6    13    14    1
     7     3     4   am
     8     4     5    1
     9     6     5    1
    10     6     7    1
    11     7     1    1
    12     1    15    1
    13    15    17    1
    14    17    18   ar
    15    18    19   ar
    16    19    22    1
    17    22    23   ar
    18    23    24   ar
    19    24    25   ar
    20    25    26   ar
    21    26    27   ar
    22    19    20   ar
    23    20    21   ar
    24     7     8    1
    25     8     9    1
    26    14    10    1
    27     9     4    1
    28     8     6    1
    29    21    17   ar
    30    27    22   ar
    31    15    16    1
@<TRIPOS>MOLECULE
*****
 27 31 0 0 0
SMALL
GASTEIGER

@<TRIPOS>ATOM
      1 C          61.5611   89.0305   11.1454 C.3     1  UNL1        0.0887
      2 O          66.9505   93.7061   13.3609 O.2     1  UNL1       -0.2748
      3 C          66.2818   93.5688   12.0253 C.2     1  UNL1        0.2277
      4 N          65.2100   92.5385   11.8255 N.am    1  UNL1       -0.2795
      5 C          64.4560   92.2859   10.5537 C.3     1  UNL1        0.0935
      6 C          63.4842   91.1712   10.8047 C.3     1  UNL1        0.0233
      7 C          62.6328   90.0608   11.3452 C.3     1  UNL1        0.0230
      8 C          63.6376   90.7349   12.2316 C.3     1  UNL1        0.0233
      9 C          64.7043   91.5800   12.8626 C.3     1  UNL1        0.0935
     10 C          66.6847   94.4618   10.8895 C.3     1  UNL1        0.1087
     11 C          67.4242   94.0389    9.6548 C.3     1  UNL1        0.0437
     12 C          67.6154   95.2502    8.7912 C.3     1  UNL1        0.1428
     13 O          66.9942   96.4219    9.4920 O.3     1  UNL1       -0.3533
     14 C          66.4189   95.9347   10.7888 C.3     1  UNL1        0.1512
     15 N          61.9077   87.6898   10.5687 N.pl3   1  UNL1       -0.3130
     16 H          61.8386   87.5385    9.5984 H       1  UNL1        0.1487
     17 C          62.3596   86.5796   11.4705 C.ar    1  UNL1        0.1599
     18 N          61.9868   85.1323   11.3422 N.ar    1  UNL1       -0.2227
     19 C          62.6605   84.3801   12.4514 C.ar    1  UNL1        0.1073
     20 C          63.4497   85.3624   13.2652 C.ar    1  UNL1        0.0588
     21 S          63.2637   86.7218   12.6590 S.2     1  UNL1       -0.0512
     22 C          62.5622   82.9045   12.7027 C.ar    1  UNL1        0.0995
     23 C          62.9719   81.9331   11.6357 C.ar    1  UNL1        0.0207
     24 C          62.8737   80.4576   11.8871 C.ar    1  UNL1        0.0032
     25 C          62.3657   79.9535   13.2054 C.ar    1  UNL1        0.0207
     26 C          61.9560   80.9250   14.2724 C.ar    1  UNL1        0.0989
     27 N          62.0543   82.4004   14.0211 N.ar    1  UNL1       -0.2423
@<TRIPOS>BOND
     1     2     3    2
     2     3    10    1
     3    10    11    1
     4    11    12    1
     5    12    13    1
     6    13    14    1
     7     3     4   am
     8     4     5    1
     9     6     5    1
    10     6     7    1
    11     7     1    1
    12     1    15    1
    13    15    17    1
    14    17    18   ar
    15    18    19   ar
    16    19    22    1
    17    22    23   ar
    18    23    24   ar
    19    24    25   ar
    20    25    26   ar
    21    26    27   ar
    22    19    20   ar
    23    20    21   ar
    24     7     8    1
    25     8     9    1
    26    14    10    1
    27     9     4    1
    28     8     6    1
    29    21    17   ar
    30    27    22   ar
    31    15    16    1
@<TRIPOS>MOLECULE
*****
 27 31 0 0 0
SMALL
GASTEIGER

@<TRIPOS>ATOM
      1 C          60.0676   88.5156    8.6555 C.3     1  UNL1        0.0887
      2 O          63.6183   91.2526   14.6319 O.2     1  UNL1       -0.2748
      3 C          63.9743   91.3349   13.1771 C.2     1  UNL1        0.2277
      4 N          63.0874   90.6949   12.1506 N.am    1  UNL1       -0.2795
      5 C          63.3129   90.6945   10.6676 C.3     1  UNL1        0.0935
      6 C          62.1842   89.9422   10.0274 C.3     1  UNL1        0.0233
      7 C          60.9545   89.1556    9.6820 C.3     1  UNL1        0.0230
      8 C          61.2610   89.4776   11.1146 C.3     1  UNL1        0.0233
      9 C          61.8193   89.9428   12.4268 C.3     1  UNL1        0.0935
     10 C          65.2172   92.0573   12.7488 C.3     1  UNL1        0.1087
     11 C          65.3305   93.0095   11.5953 C.3     1  UNL1        0.0437
     12 C          66.7483   93.4949   11.5325 C.3     1  UNL1        0.1428
     13 O          67.5114   92.8428   12.6471 O.3     1  UNL1       -0.3533
     14 C          66.5652   91.9543   13.3989 C.3     1  UNL1        0.1512
     15 N          60.1661   87.0419    8.3933 N.pl3   1  UNL1       -0.3130
     16 H          59.5467   86.6121    7.7602 H       1  UNL1        0.1487
     17 C          61.2082   86.2231    9.0959 C.ar    1  UNL1        0.1599
     18 N          61.2273   85.8864   10.5575 N.ar    1  UNL1       -0.2227
     19 C          62.4450   85.0525   10.8251 C.ar    1  UNL1        0.1073
     20 C          63.1786   84.8738    9.5290 C.ar    1  UNL1        0.0588
     21 S          62.4141   85.5973    8.4602 S.2     1  UNL1       -0.0512
     22 C          62.8570   84.4950   12.1554 C.ar    1  UNL1        0.0995
     23 C          63.4403   85.4001   13.1997 C.ar    1  UNL1        0.0207
     24 C          63.8522   84.8426   14.5300 C.ar    1  UNL1        0.0032
     25 C          63.6809   83.3801   14.8159 C.ar    1  UNL1        0.0207
     26 C          63.0976   82.4750   13.7715 C.ar    1  UNL1        0.0989
     27 N          62.6857   83.0325   12.4413 N.ar    1  UNL1       -0.2423
@<TRIPOS>BOND
     1     2     3    2
     2     3    10    1
     3    10    11    1
     4    11    12    1
     5    12    13    1
     6    13    14    1
     7     3     4   am
     8     4     5    1
     9     6     5    1
    10     6     7    1
    11     7     1    1
    12     1    15    1
    13    15    17    1
    14    17    18   ar
    15    18    19   ar
    16    19    22    1
    17    22    23   ar
    18    23    24   ar
    19    24    25   ar
    20    25    26   ar
    21    26    27   ar
    22    19    20   ar
    23    20    21   ar
    24     7     8    1
    25     8     9    1
    26    14    10    1
    27     9     4    1
    28     8     6    1
    29    21    17   ar
    30    27    22   ar
    31    15    16    1
@<TRIPOS>MOLECULE
*****
 27 31 0 0 0
SMALL
GASTEIGER

@<TRIPOS>ATOM
      1 C          63.8844   89.8923   13.9889 C.3     1  UNL1        0.0887
      2 O          64.4567   82.6024   15.5208 O.2     1  UNL1       -0.2748
      3 C          64.0512   83.2924   14.2521 C.2     1  UNL1        0.2277
      4 N          64.0133   84.7907   14.1924 N.am    1  UNL1       -0.2795
      5 C          63.6300   85.6161   13.0000 C.3     1  UNL1        0.0935
      6 C          63.7319   87.0622   13.3852 C.3     1  UNL1        0.0233
      7 C          63.9223   88.3940   14.0486 C.3     1  UNL1        0.0230
      8 C          64.1783   87.1306   14.8156 C.3     1  UNL1        0.0233
      9 C          64.3522   85.7267   15.3145 C.3     1  UNL1        0.0935
     10 C          63.6836   82.4840   13.0433 C.3     1  UNL1        0.1087
     11 C          64.1195   82.7569   11.6341 C.3     1  UNL1        0.0437
     12 C          63.5208   81.7024   10.7513 C.3     1  UNL1        0.1428
     13 O          62.7150   80.7777   11.6147 O.3     1  UNL1       -0.3533
     14 C          62.8156   81.2607   13.0312 C.3     1  UNL1        0.1512
     15 N          64.7565   90.7017   14.9024 N.pl3   1  UNL1       -0.3130
     16 H          64.8512   90.4446   15.8481 H       1  UNL1        0.1487
     17 C          65.4843   91.9027   14.3752 C.ar    1  UNL1        0.1599
     18 N          65.4408   92.4109   12.9646 N.ar    1  UNL1       -0.2227
     19 C          66.3130   93.6286   12.8837 C.ar    1  UNL1        0.1073
     20 C          66.8955   93.8729   14.2442 C.ar    1  UNL1        0.0588
     21 S          66.3833   92.8062   15.1660 S.2     1  UNL1       -0.0512
     22 C          66.5595   94.4566   11.6574 C.ar    1  UNL1        0.0995
     23 C          66.0706   95.8735   11.5985 C.ar    1  UNL1        0.0207
     24 C          66.3171   96.7015   10.3722 C.ar    1  UNL1        0.0032
     25 C          67.0524   96.1127    9.2049 C.ar    1  UNL1        0.0207
     26 C          67.5413   94.6958    9.2639 C.ar    1  UNL1        0.0989
     27 N          67.2949   93.8678   10.4901 N.ar    1  UNL1       -0.2423
@<TRIPOS>BOND
     1     2     3    2
     2     3    10    1
     3    10    11    1
     4    11    12    1
     5    12    13    1
     6    13    14    1
     7     3     4   am
     8     4     5    1
     9     6     5    1
    10     6     7    1
    11     7     1    1
    12     1    15    1
    13    15    17    1
    14    17    18   ar
    15    18    19   ar
    16    19    22    1
    17    22    23   ar
    18    23    24   ar
    19    24    25   ar
    20    25    26   ar
    21    26    27   ar
    22    19    20   ar
    23    20    21   ar
    24     7     8    1
    25     8     9    1
    26    14    10    1
    27     9     4    1
    28     8     6    1
    29    21    17   ar
    30    27    22   ar
    31    15    16    1
