@<TRIPOS>MOLECULE
*****
 40 43 0 0 0
SMALL
GASTEIGER

@<TRIPOS>ATOM
      1 C          63.7475   87.7769   15.6117 C.3     1  UNL1        0.0889
      2 C          63.1046   87.2444   16.8579 C.3     1  UNL1        0.0383
      3 C          63.3271   85.7615   16.8969 C.3     1  UNL1        0.0739
      4 N          64.1075   85.3775   15.6748 N.3     1  UNL1       -0.2700
      5 C          64.3673   86.6231   14.8805 C.3     1  UNL1        0.0919
      6 O          63.2101   88.4771   12.7444 O.2     1  UNL1       -0.2733
      7 C          63.4985   89.5614   13.7399 C.2     1  UNL1        0.2425
      8 N          63.7672   89.2114   15.1735 N.am    1  UNL1       -0.3032
      9 H          63.9565   89.9231   15.8269 H       1  UNL1        0.1495
     10 C          63.5182   90.9959   13.3018 C.3     1  UNL1        0.1759
     11 N          64.4148   91.4247   12.1782 N.am    1  UNL1       -0.2931
     12 C          65.5837   92.3236   12.4528 C.2     1  UNL1        0.2462
     13 O          65.8562   92.7936   13.8510 O.2     1  UNL1       -0.2701
     14 H          64.2359   91.1162   11.2606 H       1  UNL1        0.1502
     15 C          66.4803   92.7524   11.3293 C.ar    1  UNL1        0.0533
     16 C          67.7097   91.9565   11.0052 C.ar    1  UNL1        0.0045
     17 C          68.6062   92.3854    9.8817 C.ar    1  UNL1        0.0001
     18 C          68.2733   93.6101    9.0822 C.ar    1  UNL1        0.0039
     19 C          67.0439   94.4060    9.4063 C.ar    1  UNL1        0.0716
     20 C          66.1474   93.9772   10.5298 C.ar    1  UNL1        0.0084
     21 C          66.7109   95.6308    8.6068 C.3     1  UNL1        0.4186
     22 F          66.3780   96.8555    7.8074 F       1  UNL1       -0.1659
     23 F          66.8368   94.8379    7.3397 F       1  UNL1       -0.1659
     24 F          66.5851   96.4237    9.8739 F       1  UNL1       -0.1659
     25 C          64.5502   83.9913   15.3109 C.3     1  UNL1        0.0897
     26 C          63.7443   83.1763   14.3433 C.3     1  UNL1        0.0897
     27 N          63.4396   83.7181   12.9782 N.3     1  UNL1       -0.2686
     28 C          62.4238   84.8096   12.8140 C.3     1  UNL1        0.0939
     29 C          62.1191   85.3514   11.4488 C.3     1  UNL1        0.1110
     30 N          62.8301   84.8017   10.2479 N.am    1  UNL1       -0.2732
     31 C          62.5254   85.3435    8.8827 C.2     1  UNL1        0.2491
     32 O          63.2364   84.7938    7.6817 O.2     1  UNL1       -0.2699
     33 C          63.8459   83.7102   10.4121 C.3     1  UNL1        0.1110
     34 C          64.1506   83.1684   11.7772 C.3     1  UNL1        0.0939
     35 C          61.5096   86.4350    8.7186 C.ar    1  UNL1        0.0536
     36 C          60.2732   86.1926    7.9047 C.ar    1  UNL1        0.0045
     37 C          59.2575   87.2841    7.7406 C.ar    1  UNL1        0.0001
     38 C          59.4782   88.6179    8.3903 C.ar    1  UNL1        0.0000
     39 C          60.7147   88.8602    9.2042 C.ar    1  UNL1        0.0001
     40 C          61.7305   87.7688    9.3683 C.ar    1  UNL1        0.0045
@<TRIPOS>BOND
     1     6     7    2
     2     7    10    1
     3    10    11    1
     4    11    12   am
     5    12    13    2
     6    12    15    1
     7    15    16   ar
     8    16    17   ar
     9    17    18   ar
    10    18    19   ar
    11    19    21    1
    12    21    22    1
    13    21    23    1
    14    21    24    1
    15    19    20   ar
    16     7     8   am
    17     1     8    1
    18     1     2    1
    19     2     3    1
    20     3     4    1
    21     4    25    1
    22    25    26    1
    23    26    27    1
    24    27    28    1
    25    28    29    1
    26    29    30    1
    27    30    31   am
    28    31    32    2
    29    31    35    1
    30    35    36   ar
    31    36    37   ar
    32    37    38   ar
    33    38    39   ar
    34    39    40   ar
    35    30    33    1
    36    33    34    1
    37     4     5    1
    38    20    15   ar
    39     5     1    1
    40    34    27    1
    41    40    35   ar
    42    11    14    1
    43     8     9    1
@<TRIPOS>MOLECULE
*****
 40 43 0 0 0
SMALL
GASTEIGER

@<TRIPOS>ATOM
      1 C          63.7581   87.2410   15.7219 C.3     1  UNL1        0.0889
      2 C          62.7620   86.4780   16.5438 C.3     1  UNL1        0.0383
      3 C          62.9961   85.0142   16.3146 C.3     1  UNL1        0.0739
      4 N          64.1369   84.8725   15.3511 N.3     1  UNL1       -0.2700
      5 C          64.6079   86.2487   14.9848 C.3     1  UNL1        0.0919
      6 O          63.6578   88.6280   13.0636 O.2     1  UNL1       -0.2733
      7 C          63.8325   89.4276   14.3206 C.2     1  UNL1        0.2425
      8 N          63.8827   88.7341   15.6497 N.am    1  UNL1       -0.3032
      9 H          63.9974   89.2589   16.4748 H       1  UNL1        0.1495
     10 C          63.9571   90.9206   14.2486 C.3     1  UNL1        0.1759
     11 N          64.5240   91.5675   13.0196 N.am    1  UNL1       -0.2931
     12 C          65.5305   92.6720   13.1499 C.2     1  UNL1        0.2462
     13 O          65.9701   93.1297   14.5090 O.2     1  UNL1       -0.2701
     14 H          64.2355   91.2671   12.1276 H       1  UNL1        0.1502
     15 C          66.0974   93.3189   11.9209 C.ar    1  UNL1        0.0533
     16 C          65.7360   94.7351   11.5842 C.ar    1  UNL1        0.0045
     17 C          66.3029   95.3819   10.3553 C.ar    1  UNL1        0.0001
     18 C          67.2313   94.6125    9.4632 C.ar    1  UNL1        0.0039
     19 C          67.5928   93.1962    9.7999 C.ar    1  UNL1        0.0716
     20 C          67.0258   92.5494   11.0288 C.ar    1  UNL1        0.0084
     21 C          68.5212   92.4267    8.9077 C.3     1  UNL1        0.4186
     22 F          69.4496   91.6572    8.0155 F       1  UNL1       -0.1659
     23 F          68.7116   91.4038    9.9882 F       1  UNL1       -0.1659
     24 F          68.3307   93.4496    7.8273 F       1  UNL1       -0.1659
     25 C          64.7067   83.5813   14.8431 C.3     1  UNL1        0.0897
     26 C          63.9570   82.7823   13.8187 C.3     1  UNL1        0.0897
     27 N          63.5796   83.4080   12.5087 N.3     1  UNL1       -0.2686
     28 C          62.6164   84.5574   12.4765 C.3     1  UNL1        0.0939
     29 C          62.2389   85.1831   11.1664 C.3     1  UNL1        0.1110
     30 N          62.8248   84.6594    9.8888 N.am    1  UNL1       -0.2732
     31 C          62.4474   85.2851    8.5787 C.2     1  UNL1        0.2491
     32 O          63.0332   84.7614    7.3010 O.2     1  UNL1       -0.2699
     33 C          63.7880   83.5100    9.9210 C.3     1  UNL1        0.1110
     34 C          64.1655   82.8843   11.2310 C.3     1  UNL1        0.0939
     35 C          61.4841   86.4345    8.5465 C.ar    1  UNL1        0.0536
     36 C          60.1903   86.3080    7.7983 C.ar    1  UNL1        0.0045
     37 C          59.2271   87.4574    7.7660 C.ar    1  UNL1        0.0001
     38 C          59.5577   88.7333    8.4821 C.ar    1  UNL1        0.0000
     39 C          60.8516   88.8598    9.2304 C.ar    1  UNL1        0.0001
     40 C          61.8149   87.7104    9.2626 C.ar    1  UNL1        0.0045
@<TRIPOS>BOND
     1     6     7    2
     2     7    10    1
     3    10    11    1
     4    11    12   am
     5    12    13    2
     6    12    15    1
     7    15    16   ar
     8    16    17   ar
     9    17    18   ar
    10    18    19   ar
    11    19    21    1
    12    21    22    1
    13    21    23    1
    14    21    24    1
    15    19    20   ar
    16     7     8   am
    17     1     8    1
    18     1     2    1
    19     2     3    1
    20     3     4    1
    21     4    25    1
    22    25    26    1
    23    26    27    1
    24    27    28    1
    25    28    29    1
    26    29    30    1
    27    30    31   am
    28    31    32    2
    29    31    35    1
    30    35    36   ar
    31    36    37   ar
    32    37    38   ar
    33    38    39   ar
    34    39    40   ar
    35    30    33    1
    36    33    34    1
    37     4     5    1
    38    20    15   ar
    39     5     1    1
    40    34    27    1
    41    40    35   ar
    42    11    14    1
    43     8     9    1
@<TRIPOS>MOLECULE
*****
 40 43 0 0 0
SMALL
GASTEIGER

@<TRIPOS>ATOM
      1 C          63.4959   85.5763   15.6467 C.3     1  UNL1        0.0889
      2 C          62.3155   84.7968   16.1455 C.3     1  UNL1        0.0383
      3 C          62.4867   83.3701   15.7152 C.3     1  UNL1        0.0739
      4 N          63.7730   83.2678   14.9503 N.3     1  UNL1       -0.2700
      5 C          64.3967   84.6313   14.9080 C.3     1  UNL1        0.0919
      6 O          61.5767   87.1928   17.2909 O.2     1  UNL1       -0.2733
      7 C          62.7742   87.8514   16.6727 C.2     1  UNL1        0.2425
      8 N          63.7338   87.0432   15.8506 N.am    1  UNL1       -0.3032
      9 H          64.5198   87.4755   15.4449 H       1  UNL1        0.1495
     10 C          63.0122   89.3183   16.8767 C.3     1  UNL1        0.1759
     11 N          63.9889   90.0483   16.0030 N.am    1  UNL1       -0.2931
     12 C          63.6417   90.3438   14.5740 C.2     1  UNL1        0.2462
     13 O          62.3178   89.9094   14.0186 O.2     1  UNL1       -0.2701
     14 H          64.8579   90.3334   16.3676 H       1  UNL1        0.1502
     15 C          64.6185   91.0738   13.7004 C.ar    1  UNL1        0.0533
     16 C          64.1900   91.5765   12.3537 C.ar    1  UNL1        0.0045
     17 C          65.1668   92.3065   11.4801 C.ar    1  UNL1        0.0001
     18 C          66.5719   92.5337   11.9533 C.ar    1  UNL1        0.0039
     19 C          67.0004   92.0310   13.3000 C.ar    1  UNL1        0.0716
     20 C          66.0237   91.3010   14.1735 C.ar    1  UNL1        0.0084
     21 C          68.4055   92.2582   13.7731 C.3     1  UNL1        0.4186
     22 F          69.8107   92.4854   14.2463 F       1  UNL1       -0.1659
     23 F          67.8902   93.1115   14.8940 F       1  UNL1       -0.1659
     24 F          68.9209   91.4049   12.6523 F       1  UNL1       -0.1659
     25 C          64.3366   82.0210   14.3357 C.3     1  UNL1        0.0897
     26 C          63.8523   81.5620   12.9923 C.3     1  UNL1        0.0897
     27 N          63.5615   82.5662   11.9167 N.3     1  UNL1       -0.2686
     28 C          62.7018   83.7583   12.2163 C.3     1  UNL1        0.0939
     29 C          62.4109   84.7626   11.1407 C.3     1  UNL1        0.1110
     30 N          62.9798   84.5746    9.7655 N.am    1  UNL1       -0.2732
     31 C          62.6889   85.5789    8.6899 C.2     1  UNL1        0.2491
     32 O          63.2577   85.3909    7.3147 O.2     1  UNL1       -0.2699
     33 C          63.8394   83.3824    9.4659 C.3     1  UNL1        0.1110
     34 C          64.1303   82.3782   10.5415 C.3     1  UNL1        0.0939
     35 C          61.8292   86.7710    8.9895 C.ar    1  UNL1        0.0536
     36 C          60.4132   86.8174    8.4970 C.ar    1  UNL1        0.0045
     37 C          59.5536   88.0095    8.7966 C.ar    1  UNL1        0.0001
     38 C          60.1101   89.1553    9.5887 C.ar    1  UNL1        0.0000
     39 C          61.5262   89.1090   10.0812 C.ar    1  UNL1        0.0001
     40 C          62.3858   87.9168    9.7816 C.ar    1  UNL1        0.0045
@<TRIPOS>BOND
     1     6     7    2
     2     7    10    1
     3    10    11    1
     4    11    12   am
     5    12    13    2
     6    12    15    1
     7    15    16   ar
     8    16    17   ar
     9    17    18   ar
    10    18    19   ar
    11    19    21    1
    12    21    22    1
    13    21    23    1
    14    21    24    1
    15    19    20   ar
    16     7     8   am
    17     1     8    1
    18     1     2    1
    19     2     3    1
    20     3     4    1
    21     4    25    1
    22    25    26    1
    23    26    27    1
    24    27    28    1
    25    28    29    1
    26    29    30    1
    27    30    31   am
    28    31    32    2
    29    31    35    1
    30    35    36   ar
    31    36    37   ar
    32    37    38   ar
    33    38    39   ar
    34    39    40   ar
    35    30    33    1
    36    33    34    1
    37     4     5    1
    38    20    15   ar
    39     5     1    1
    40    34    27    1
    41    40    35   ar
    42    11    14    1
    43     8     9    1
@<TRIPOS>MOLECULE
*****
 40 43 0 0 0
SMALL
GASTEIGER

@<TRIPOS>ATOM
      1 C          59.7113   89.5137    6.9467 C.3     1  UNL1        0.0889
      2 C          59.1308   88.1309    6.9759 C.3     1  UNL1        0.0383
      3 C          59.4004   87.5436    8.3296 C.3     1  UNL1        0.0739
      4 N          60.1475   88.5634    9.1369 N.3     1  UNL1       -0.2700
      5 C          60.3396   89.7810    8.2822 C.3     1  UNL1        0.0919
      6 O          57.0793   90.5526    5.9499 O.2     1  UNL1       -0.2733
      7 C          58.3546   90.9821    5.2873 C.2     1  UNL1        0.2425
      8 N          59.6706   90.4627    5.7856 N.am    1  UNL1       -0.3032
      9 H          60.5076   90.7446    5.3507 H       1  UNL1        0.1495
     10 C          58.3140   91.9310    4.1263 C.3     1  UNL1        0.1759
     11 N          59.5157   92.7666    3.7982 N.am    1  UNL1       -0.2931
     12 C          59.7795   93.1765    2.3797 C.2     1  UNL1        0.2462
     13 O          58.8416   92.7508    1.2892 O.2     1  UNL1       -0.2701
     14 H          60.1313   93.0460    4.5139 H       1  UNL1        0.1502
     15 C          60.9813   94.0121    2.0515 C.ar    1  UNL1        0.0533
     16 C          60.8802   95.5086    2.0638 C.ar    1  UNL1        0.0045
     17 C          62.0819   96.3442    1.7357 C.ar    1  UNL1        0.0001
     18 C          63.3847   95.6832    1.3953 C.ar    1  UNL1        0.0039
     19 C          63.4858   94.1867    1.3830 C.ar    1  UNL1        0.0716
     20 C          62.2841   93.3511    1.7112 C.ar    1  UNL1        0.0084
     21 C          64.7886   93.5257    1.0427 C.3     1  UNL1        0.4186
     22 F          66.0914   92.8647    0.7023 F       1  UNL1       -0.1659
     23 F          64.3410   92.2801    1.7484 F       1  UNL1       -0.1659
     24 F          65.2362   94.7713    0.3369 F       1  UNL1       -0.1659
     25 C          60.6196   88.3952   10.5507 C.3     1  UNL1        0.0897
     26 C          60.7056   89.5855   11.4593 C.3     1  UNL1        0.0897
     27 N          62.0247   90.2631   11.6848 N.3     1  UNL1       -0.2686
     28 C          62.6762   91.0261   10.5697 C.3     1  UNL1        0.0939
     29 C          63.9954   91.7038   10.7952 C.3     1  UNL1        0.1110
     30 N          64.6629   91.6182   12.1357 N.am    1  UNL1       -0.2732
     31 C          65.9821   92.2959   12.3612 C.2     1  UNL1        0.2491
     32 O          66.6498   92.2104   13.7017 O.2     1  UNL1       -0.2699
     33 C          64.0115   90.8552   13.2508 C.3     1  UNL1        0.1110
     34 C          62.6924   90.1776   13.0253 C.3     1  UNL1        0.0939
     35 C          66.6336   93.0589   11.2461 C.ar    1  UNL1        0.0536
     36 C          67.5507   92.3544   10.2909 C.ar    1  UNL1        0.0045
     37 C          68.2021   93.1174    9.1759 C.ar    1  UNL1        0.0001
     38 C          67.9364   94.5850    9.0160 C.ar    1  UNL1        0.0000
     39 C          67.0192   95.2895    9.9713 C.ar    1  UNL1        0.0001
     40 C          66.3678   94.5265   11.0863 C.ar    1  UNL1        0.0045
@<TRIPOS>BOND
     1     6     7    2
     2     7    10    1
     3    10    11    1
     4    11    12   am
     5    12    13    2
     6    12    15    1
     7    15    16   ar
     8    16    17   ar
     9    17    18   ar
    10    18    19   ar
    11    19    21    1
    12    21    22    1
    13    21    23    1
    14    21    24    1
    15    19    20   ar
    16     7     8   am
    17     1     8    1
    18     1     2    1
    19     2     3    1
    20     3     4    1
    21     4    25    1
    22    25    26    1
    23    26    27    1
    24    27    28    1
    25    28    29    1
    26    29    30    1
    27    30    31   am
    28    31    32    2
    29    31    35    1
    30    35    36   ar
    31    36    37   ar
    32    37    38   ar
    33    38    39   ar
    34    39    40   ar
    35    30    33    1
    36    33    34    1
    37     4     5    1
    38    20    15   ar
    39     5     1    1
    40    34    27    1
    41    40    35   ar
    42    11    14    1
    43     8     9    1
@<TRIPOS>MOLECULE
*****
 40 43 0 0 0
SMALL
GASTEIGER

@<TRIPOS>ATOM
      1 C          59.2781   88.9946    7.2630 C.3     1  UNL1        0.0889
      2 C          59.3040   87.5035    7.1020 C.3     1  UNL1        0.0383
      3 C          60.1594   86.9340    8.1947 C.3     1  UNL1        0.0739
      4 N          60.6623   88.0732    9.0310 N.3     1  UNL1       -0.2700
      5 C          60.1176   89.3467    8.4552 C.3     1  UNL1        0.0919
      6 O          60.8000   90.7831    5.3961 O.2     1  UNL1       -0.2733
      7 C          59.3029   90.8577    5.4525 C.2     1  UNL1        0.2425
      8 N          58.5420   89.9635    6.3859 N.am    1  UNL1       -0.3032
      9 H          57.5594   90.0125    6.4228 H       1  UNL1        0.1495
     10 C          58.5668   91.8266    4.5754 C.3     1  UNL1        0.1759
     11 N          58.8722   91.8916    3.1082 N.am    1  UNL1       -0.2931
     12 C          59.5967   93.0780    2.5448 C.2     1  UNL1        0.2462
     13 O          60.0159   94.1994    3.4485 O.2     1  UNL1       -0.2701
     14 H          58.5970   91.1556    2.5150 H       1  UNL1        0.1502
     15 C          59.9021   93.1430    1.0776 C.ar    1  UNL1        0.0533
     16 C          61.3111   93.3657    0.6139 C.ar    1  UNL1        0.0045
     17 C          61.6165   93.4306   -0.8532 C.ar    1  UNL1        0.0001
     18 C          60.5128   93.2729   -1.8567 C.ar    1  UNL1        0.0039
     19 C          59.1038   93.0502   -1.3931 C.ar    1  UNL1        0.0716
     20 C          58.7984   92.9852    0.0741 C.ar    1  UNL1        0.0084
     21 C          58.0001   92.8925   -2.3965 C.3     1  UNL1        0.4186
     22 F          56.8964   92.7348   -3.4000 F       1  UNL1       -0.1659
     23 F          59.0129   92.8355   -3.5015 F       1  UNL1       -0.1659
     24 F          56.9873   92.9495   -1.2916 F       1  UNL1       -0.1659
     25 C          61.5534   87.9590   10.2322 C.3     1  UNL1        0.0897
     26 C          61.4367   88.9526   11.3498 C.3     1  UNL1        0.0897
     27 N          62.5404   89.9381   11.5956 N.3     1  UNL1       -0.2686
     28 C          63.0877   90.7499   10.4592 C.3     1  UNL1        0.0939
     29 C          64.1916   91.7355   10.7049 C.3     1  UNL1        0.1110
     30 N          64.7480   91.9091   12.0870 N.am    1  UNL1       -0.2732
     31 C          65.8518   92.8947   12.3327 C.2     1  UNL1        0.2491
     32 O          66.4083   93.0684   13.7148 O.2     1  UNL1       -0.2699
     33 C          64.2007   91.0973   13.2234 C.3     1  UNL1        0.1110
     34 C          63.0969   90.1118   12.9777 C.3     1  UNL1        0.0939
     35 C          66.3991   93.7066   11.1964 C.ar    1  UNL1        0.0536
     36 C          67.3088   93.0686   10.1888 C.ar    1  UNL1        0.0045
     37 C          67.8561   93.8804    9.0524 C.ar    1  UNL1        0.0001
     38 C          67.4937   95.3303    8.9237 C.ar    1  UNL1        0.0000
     39 C          66.5839   95.9683    9.9313 C.ar    1  UNL1        0.0001
     40 C          66.0366   95.1564   11.0677 C.ar    1  UNL1        0.0045
@<TRIPOS>BOND
     1     6     7    2
     2     7    10    1
     3    10    11    1
     4    11    12   am
     5    12    13    2
     6    12    15    1
     7    15    16   ar
     8    16    17   ar
     9    17    18   ar
    10    18    19   ar
    11    19    21    1
    12    21    22    1
    13    21    23    1
    14    21    24    1
    15    19    20   ar
    16     7     8   am
    17     1     8    1
    18     1     2    1
    19     2     3    1
    20     3     4    1
    21     4    25    1
    22    25    26    1
    23    26    27    1
    24    27    28    1
    25    28    29    1
    26    29    30    1
    27    30    31   am
    28    31    32    2
    29    31    35    1
    30    35    36   ar
    31    36    37   ar
    32    37    38   ar
    33    38    39   ar
    34    39    40   ar
    35    30    33    1
    36    33    34    1
    37     4     5    1
    38    20    15   ar
    39     5     1    1
    40    34    27    1
    41    40    35   ar
    42    11    14    1
    43     8     9    1
@<TRIPOS>MOLECULE
*****
 40 43 0 0 0
SMALL
GASTEIGER

@<TRIPOS>ATOM
      1 C          59.3084   89.3638    7.1812 C.3     1  UNL1        0.0889
      2 C          59.2529   87.8851    6.9360 C.3     1  UNL1        0.0383
      3 C          60.0221   87.2048    8.0294 C.3     1  UNL1        0.0739
      4 N          60.5530   88.2631    8.9504 N.3     1  UNL1       -0.2700
      5 C          60.1118   89.5975    8.4261 C.3     1  UNL1        0.0919
      6 O          60.9369   90.8098    5.1178 O.2     1  UNL1       -0.2733
      7 C          59.4863   91.1460    5.2991 C.2     1  UNL1        0.2425
      8 N          58.6721   90.4231    6.3307 N.am    1  UNL1       -0.3032
      9 H          57.7200   90.6438    6.4496 H       1  UNL1        0.1495
     10 C          58.8500   92.2052    4.4487 C.3     1  UNL1        0.1759
     11 N          59.0082   92.1652    2.9575 N.am    1  UNL1       -0.2931
     12 C          59.6502   93.3156    2.2403 C.2     1  UNL1        0.2462
     13 O          60.1340   94.5060    3.0141 O.2     1  UNL1       -0.2701
     14 H          58.6907   91.3839    2.4496 H       1  UNL1        0.1502
     15 C          59.8083   93.2756    0.7491 C.ar    1  UNL1        0.0533
     16 C          58.5977   93.1782   -0.1311 C.ar    1  UNL1        0.0045
     17 C          58.7559   93.1382   -1.6222 C.ar    1  UNL1        0.0001
     18 C          60.1247   93.1955   -2.2330 C.ar    1  UNL1        0.0039
     19 C          61.3353   93.2929   -1.3527 C.ar    1  UNL1        0.0716
     20 C          61.1771   93.3329    0.1383 C.ar    1  UNL1        0.0084
     21 C          62.7041   93.3502   -1.9635 C.3     1  UNL1        0.4186
     22 F          64.0730   93.4075   -2.5743 F       1  UNL1       -0.1659
     23 F          63.3117   93.4305   -0.5944 F       1  UNL1       -0.1659
     24 F          62.0966   93.2699   -3.3326 F       1  UNL1       -0.1659
     25 C          61.3797   88.0283   10.1797 C.3     1  UNL1        0.0897
     26 C          61.3097   88.9930   11.3262 C.3     1  UNL1        0.0897
     27 N          62.4427   89.9434   11.5769 N.3     1  UNL1       -0.2686
     28 C          63.0329   90.7234   10.4397 C.3     1  UNL1        0.0939
     29 C          64.1660   91.6739   10.6904 C.3     1  UNL1        0.1110
     30 N          64.7088   91.8443   12.0783 N.am    1  UNL1       -0.2732
     31 C          65.8419   92.7948   12.3290 C.2     1  UNL1        0.2491
     32 O          66.3848   92.9652   13.7169 O.2     1  UNL1       -0.2699
     33 C          64.1186   91.0643   13.2155 C.3     1  UNL1        0.1110
     34 C          62.9856   90.1138   12.9648 C.3     1  UNL1        0.0939
     35 C          66.4321   93.5748   11.1918 C.ar    1  UNL1        0.0536
     36 C          67.3624   92.9039   10.2252 C.ar    1  UNL1        0.0045
     37 C          67.9526   93.6839    9.0880 C.ar    1  UNL1        0.0001
     38 C          67.6124   95.1348    8.9174 C.ar    1  UNL1        0.0000
     39 C          66.6820   95.8057    9.8840 C.ar    1  UNL1        0.0001
     40 C          66.0918   95.0257   11.0212 C.ar    1  UNL1        0.0045
@<TRIPOS>BOND
     1     6     7    2
     2     7    10    1
     3    10    11    1
     4    11    12   am
     5    12    13    2
     6    12    15    1
     7    15    16   ar
     8    16    17   ar
     9    17    18   ar
    10    18    19   ar
    11    19    21    1
    12    21    22    1
    13    21    23    1
    14    21    24    1
    15    19    20   ar
    16     7     8   am
    17     1     8    1
    18     1     2    1
    19     2     3    1
    20     3     4    1
    21     4    25    1
    22    25    26    1
    23    26    27    1
    24    27    28    1
    25    28    29    1
    26    29    30    1
    27    30    31   am
    28    31    32    2
    29    31    35    1
    30    35    36   ar
    31    36    37   ar
    32    37    38   ar
    33    38    39   ar
    34    39    40   ar
    35    30    33    1
    36    33    34    1
    37     4     5    1
    38    20    15   ar
    39     5     1    1
    40    34    27    1
    41    40    35   ar
    42    11    14    1
    43     8     9    1
@<TRIPOS>MOLECULE
*****
 40 43 0 0 0
SMALL
GASTEIGER

@<TRIPOS>ATOM
      1 C          63.5073   85.6514   15.6451 C.3     1  UNL1        0.0889
      2 C          62.3469   84.8463   16.1503 C.3     1  UNL1        0.0383
      3 C          62.5473   83.4235   15.7196 C.3     1  UNL1        0.0739
      4 N          63.8316   83.3492   14.9482 N.3     1  UNL1       -0.2700
      5 C          64.4249   84.7262   14.9021 C.3     1  UNL1        0.0919
      6 O          61.5626   87.2257   17.3003 O.2     1  UNL1       -0.2733
      7 C          62.7415   87.9104   16.6748 C.2     1  UNL1        0.2425
      8 N          63.7139   87.1233   15.8472 N.am    1  UNL1       -0.3032
      9 H          64.4876   87.5728   15.4367 H       1  UNL1        0.1495
     10 C          62.9481   89.3823   16.8770 C.3     1  UNL1        0.1759
     11 N          64.0848   90.0812   16.1916 N.am    1  UNL1       -0.2931
     12 C          63.9664   90.4665   14.7468 C.2     1  UNL1        0.2462
     13 O          62.7115   90.1528   13.9873 O.2     1  UNL1       -0.2701
     14 H          64.9084   90.2871   16.6901 H       1  UNL1        0.1502
     15 C          65.1030   91.1654   14.0614 C.ar    1  UNL1        0.0533
     16 C          66.4781   91.1253   14.6593 C.ar    1  UNL1        0.0045
     17 C          67.6146   91.8242   13.9739 C.ar    1  UNL1        0.0001
     18 C          67.3760   92.5632   12.6906 C.ar    1  UNL1        0.0039
     19 C          66.0010   92.6034   12.0927 C.ar    1  UNL1        0.0716
     20 C          64.8645   91.9045   12.7781 C.ar    1  UNL1        0.0084
     21 C          65.7624   93.3425   10.8094 C.3     1  UNL1        0.4186
     22 F          65.5239   94.0816    9.5261 F       1  UNL1       -0.1659
     23 F          66.7918   94.3597   11.2039 F       1  UNL1       -0.1659
     24 F          64.7331   92.3252   10.4149 F       1  UNL1       -0.1659
     25 C          64.4194   82.1148   14.3312 C.3     1  UNL1        0.0897
     26 C          63.9177   81.6279   13.0041 C.3     1  UNL1        0.0897
     27 N          63.6043   82.6101   11.9146 N.3     1  UNL1       -0.2686
     28 C          62.7442   83.8040   12.2057 C.3     1  UNL1        0.0939
     29 C          62.4307   84.7862   11.1162 C.3     1  UNL1        0.1110
     30 N          62.9776   84.5745    9.7355 N.am    1  UNL1       -0.2732
     31 C          62.6642   85.5567    8.6460 C.2     1  UNL1        0.2491
     32 O          63.2110   85.3451    7.2653 O.2     1  UNL1       -0.2699
     33 C          63.8378   83.3806    9.4444 C.3     1  UNL1        0.1110
     34 C          64.1511   82.3984   10.5339 C.3     1  UNL1        0.0939
     35 C          61.8040   86.7506    8.9371 C.ar    1  UNL1        0.0536
     36 C          60.4101   86.8225    8.3879 C.ar    1  UNL1        0.0045
     37 C          59.5499   88.0163    8.6791 C.ar    1  UNL1        0.0001
     38 C          60.0837   89.1383    9.5194 C.ar    1  UNL1        0.0000
     39 C          61.4777   89.0664   10.0687 C.ar    1  UNL1        0.0001
     40 C          62.3379   87.8725    9.7775 C.ar    1  UNL1        0.0045
@<TRIPOS>BOND
     1     6     7    2
     2     7    10    1
     3    10    11    1
     4    11    12   am
     5    12    13    2
     6    12    15    1
     7    15    16   ar
     8    16    17   ar
     9    17    18   ar
    10    18    19   ar
    11    19    21    1
    12    21    22    1
    13    21    23    1
    14    21    24    1
    15    19    20   ar
    16     7     8   am
    17     1     8    1
    18     1     2    1
    19     2     3    1
    20     3     4    1
    21     4    25    1
    22    25    26    1
    23    26    27    1
    24    27    28    1
    25    28    29    1
    26    29    30    1
    27    30    31   am
    28    31    32    2
    29    31    35    1
    30    35    36   ar
    31    36    37   ar
    32    37    38   ar
    33    38    39   ar
    34    39    40   ar
    35    30    33    1
    36    33    34    1
    37     4     5    1
    38    20    15   ar
    39     5     1    1
    40    34    27    1
    41    40    35   ar
    42    11    14    1
    43     8     9    1
@<TRIPOS>MOLECULE
*****
 40 43 0 0 0
SMALL
GASTEIGER

@<TRIPOS>ATOM
      1 C          60.3800   87.9993    8.8463 C.3     1  UNL1        0.0889
      2 C          59.1679   87.4978    8.1189 C.3     1  UNL1        0.0383
      3 C          59.5198   86.1867    7.4807 C.3     1  UNL1        0.0739
      4 N          60.9494   85.8780    7.8136 N.3     1  UNL1       -0.2700
      5 C          61.4811   86.9982    8.6576 C.3     1  UNL1        0.0919
      6 O          61.1974   87.9398   11.7322 O.2     1  UNL1       -0.2733
      7 C          60.8833   89.2477   11.0686 C.2     1  UNL1        0.2425
      8 N          60.4746   89.2775    9.6256 N.am    1  UNL1       -0.3032
      9 H          60.2684   90.1360    9.1901 H       1  UNL1        0.1495
     10 C          60.9778   90.5259   11.8478 C.3     1  UNL1        0.1759
     11 N          62.2877   91.2505   11.9441 N.am    1  UNL1       -0.2931
     12 C          63.3181   90.8080   12.9404 C.2     1  UNL1        0.2462
     13 O          63.0386   89.6409   13.8403 O.2     1  UNL1       -0.2701
     14 H          62.4712   92.0165   11.3535 H       1  UNL1        0.1502
     15 C          64.6280   91.5325   13.0367 C.ar    1  UNL1        0.0533
     16 C          65.1547   92.2903   11.8542 C.ar    1  UNL1        0.0045
     17 C          66.4646   93.0148   11.9506 C.ar    1  UNL1        0.0001
     18 C          67.2477   92.9815   13.2295 C.ar    1  UNL1        0.0039
     19 C          66.7210   92.2238   14.4120 C.ar    1  UNL1        0.0716
     20 C          65.4112   91.4993   14.3156 C.ar    1  UNL1        0.0084
     21 C          67.5042   92.1905   15.6909 C.3     1  UNL1        0.4186
     22 F          68.2874   92.1572   16.9698 F       1  UNL1       -0.1659
     23 F          68.7611   91.9308   14.9144 F       1  UNL1       -0.1659
     24 F          66.2473   92.4502   16.4673 F       1  UNL1       -0.1659
     25 C          61.7133   84.6625    7.3789 C.3     1  UNL1        0.0897
     26 C          63.0755   84.3906    7.9449 C.3     1  UNL1        0.0897
     27 N          63.2399   84.1340    9.4136 N.3     1  UNL1       -0.2686
     28 C          63.0104   85.2416   10.3987 C.3     1  UNL1        0.0939
     29 C          63.1748   84.9851   11.8675 C.3     1  UNL1        0.1110
     30 N          63.5686   83.6208   12.3510 N.am    1  UNL1       -0.2732
     31 C          63.7329   83.3642   13.8198 C.2     1  UNL1        0.2491
     32 O          64.1267   82.0000   14.3034 O.2     1  UNL1       -0.2699
     33 C          63.7980   82.5131   11.3659 C.3     1  UNL1        0.1110
     34 C          63.6336   82.7697    9.8972 C.3     1  UNL1        0.0939
     35 C          63.5035   84.4719   14.8049 C.ar    1  UNL1        0.0536
     36 C          62.3842   84.3721   15.7984 C.ar    1  UNL1        0.0045
     37 C          62.1548   85.4797   16.7835 C.ar    1  UNL1        0.0001
     38 C          63.0447   86.6871   16.7751 C.ar    1  UNL1        0.0000
     39 C          64.1641   86.7869   15.7816 C.ar    1  UNL1        0.0001
     40 C          64.3935   85.6793   14.7964 C.ar    1  UNL1        0.0045
@<TRIPOS>BOND
     1     6     7    2
     2     7    10    1
     3    10    11    1
     4    11    12   am
     5    12    13    2
     6    12    15    1
     7    15    16   ar
     8    16    17   ar
     9    17    18   ar
    10    18    19   ar
    11    19    21    1
    12    21    22    1
    13    21    23    1
    14    21    24    1
    15    19    20   ar
    16     7     8   am
    17     1     8    1
    18     1     2    1
    19     2     3    1
    20     3     4    1
    21     4    25    1
    22    25    26    1
    23    26    27    1
    24    27    28    1
    25    28    29    1
    26    29    30    1
    27    30    31   am
    28    31    32    2
    29    31    35    1
    30    35    36   ar
    31    36    37   ar
    32    37    38   ar
    33    38    39   ar
    34    39    40   ar
    35    30    33    1
    36    33    34    1
    37     4     5    1
    38    20    15   ar
    39     5     1    1
    40    34    27    1
    41    40    35   ar
    42    11    14    1
    43     8     9    1
@<TRIPOS>MOLECULE
*****
 40 43 0 0 0
SMALL
GASTEIGER

@<TRIPOS>ATOM
      1 C          61.7907   91.7150    3.6468 C.3     1  UNL1        0.0889
      2 C          63.1031   91.4070    2.9889 C.3     1  UNL1        0.0383
      3 C          63.3147   92.4033    1.8878 C.3     1  UNL1        0.0739
      4 N          62.1331   93.3272    1.8652 N.3     1  UNL1       -0.2700
      5 C          61.1912   92.9017    2.9523 C.3     1  UNL1        0.0919
      6 O          58.8293   91.8262    4.1138 O.2     1  UNL1       -0.2733
      7 C          59.7036   91.0231    5.0308 C.2     1  UNL1        0.2425
      8 N          61.1842   90.9675    4.7973 N.am    1  UNL1       -0.3032
      9 H          61.7580   90.4404    5.3991 H       1  UNL1        0.1495
     10 C          59.0971   90.2756    6.1812 C.3     1  UNL1        0.1759
     11 N          59.9753   89.7340    7.2701 N.am    1  UNL1       -0.2931
     12 C          59.6486   88.4185    7.9124 C.2     1  UNL1        0.2462
     13 O          58.4438   87.6445    7.4658 O.2     1  UNL1       -0.2701
     14 H          60.7660   90.2420    7.5632 H       1  UNL1        0.1502
     15 C          60.5267   87.8769    9.0013 C.ar    1  UNL1        0.0533
     16 C          60.6377   86.3954    9.2081 C.ar    1  UNL1        0.0045
     17 C          61.5158   85.8539   10.2970 C.ar    1  UNL1        0.0001
     18 C          62.2829   86.7938   11.1790 C.ar    1  UNL1        0.0039
     19 C          62.1719   88.2753   10.9722 C.ar    1  UNL1        0.0716
     20 C          61.2938   88.8168    9.8834 C.ar    1  UNL1        0.0084
     21 C          62.9390   89.2153   11.8543 C.3     1  UNL1        0.4186
     22 F          63.7060   90.1552   12.7364 F       1  UNL1       -0.1659
     23 F          63.5983   88.0472   12.5257 F       1  UNL1       -0.1659
     24 F          62.2796   90.3834   11.1829 F       1  UNL1       -0.1659
     25 C          61.9292   94.4749    0.9211 C.3     1  UNL1        0.0897
     26 C          60.7004   95.3279    1.0320 C.3     1  UNL1        0.0897
     27 N          59.4445   94.9308    0.3144 N.3     1  UNL1       -0.2686
     28 C          58.6234   95.9693   -0.3909 C.3     1  UNL1        0.0939
     29 C          57.3674   95.5722   -1.1086 C.3     1  UNL1        0.1110
     30 N          56.9327   94.1366   -1.1209 N.am    1  UNL1       -0.2732
     31 C          55.6767   93.7396   -1.8386 C.2     1  UNL1        0.2491
     32 O          55.2420   92.3040   -1.8510 O.2     1  UNL1       -0.2699
     33 C          57.7538   93.0982   -0.4157 C.3     1  UNL1        0.1110
     34 C          59.0097   93.4953    0.3019 C.3     1  UNL1        0.0939
     35 C          54.8556   94.7781   -2.5438 C.ar    1  UNL1        0.0536
     36 C          53.7350   95.4656   -1.8218 C.ar    1  UNL1        0.0045
     37 C          52.9139   96.5040   -2.5271 C.ar    1  UNL1        0.0001
     38 C          53.2135   96.8550   -3.9543 C.ar    1  UNL1        0.0000
     39 C          54.3342   96.1674   -4.6763 C.ar    1  UNL1        0.0001
     40 C          55.1553   95.1289   -3.9711 C.ar    1  UNL1        0.0045
@<TRIPOS>BOND
     1     6     7    2
     2     7    10    1
     3    10    11    1
     4    11    12   am
     5    12    13    2
     6    12    15    1
     7    15    16   ar
     8    16    17   ar
     9    17    18   ar
    10    18    19   ar
    11    19    21    1
    12    21    22    1
    13    21    23    1
    14    21    24    1
    15    19    20   ar
    16     7     8   am
    17     1     8    1
    18     1     2    1
    19     2     3    1
    20     3     4    1
    21     4    25    1
    22    25    26    1
    23    26    27    1
    24    27    28    1
    25    28    29    1
    26    29    30    1
    27    30    31   am
    28    31    32    2
    29    31    35    1
    30    35    36   ar
    31    36    37   ar
    32    37    38   ar
    33    38    39   ar
    34    39    40   ar
    35    30    33    1
    36    33    34    1
    37     4     5    1
    38    20    15   ar
    39     5     1    1
    40    34    27    1
    41    40    35   ar
    42    11    14    1
    43     8     9    1
