@<TRIPOS>MOLECULE
*****
 30 33 0 0 0
SMALL
GASTEIGER

@<TRIPOS>ATOM
      1 C          63.0032   87.7818   12.3768 C.ar    1  UNL1        0.0814
      2 C          62.1679   88.1085   11.1746 C.ar    1  UNL1        0.0381
      3 C          61.5099   87.0076   10.3968 C.ar    1  UNL1        0.1034
      4 C          61.6872   85.5799   10.8213 C.ar    1  UNL1        0.1005
      5 N          62.5225   85.2531   12.0235 N.ar    1  UNL1       -0.2905
      6 C          62.8753   83.9496   12.6765 C.ar    1  UNL1        0.0567
      7 C          62.4301   82.5895   12.2270 C.3     1  UNL1        0.0517
      8 C          63.7513   84.2448   13.8578 C.ar    1  UNL1        0.0730
      9 C          64.3359   83.2318   14.7970 C.3     1  UNL1        0.0534
     10 N          63.9400   85.7309   13.9349 N.ar    1  UNL1       -0.2299
     11 C          63.1805   86.3540   12.8013 C.ar    1  UNL1        0.1604
     12 N          60.6746   87.3343    9.1945 N.ar    1  UNL1       -0.2067
     13 C          59.9286   86.3486    8.3449 C.ar    1  UNL1        0.2014
     14 N          59.2315   87.1093    7.2561 N.ar    1  UNL1       -0.2047
     15 C          59.5467   88.5651    7.4327 C.ar    1  UNL1        0.1903
     16 N          60.4386   88.7042    8.6307 N.ar    1  UNL1       -0.1461
     17 C          59.0562   89.6852    6.5639 C.3     1  UNL1        0.2050
     18 O          60.0241   90.4552    5.7153 O.3     1  UNL1       -0.3748
     19 H          60.6340   90.9479    6.2864 H       1  UNL1        0.2110
     20 N          63.6613   88.8827   13.1546 N.pl3   1  UNL1       -0.3267
     21 H          64.3519   88.6686   13.8228 H       1  UNL1        0.1472
     22 C          63.2670   90.3099   12.9144 C.3     1  UNL1        0.1137
     23 C          63.2334   91.3473   10.0997 C.3     1  UNL1        0.0307
     24 C          64.2785   91.8263   11.0631 C.ar    1  UNL1       -0.0245
     25 C          65.3070   92.8240   10.6192 C.ar    1  UNL1       -0.0045
     26 C          66.3521   93.3029   11.5826 C.ar    1  UNL1       -0.0007
     27 C          66.3689   92.7842   12.9900 C.ar    1  UNL1       -0.0045
     28 C          65.3406   91.7865   13.4339 C.ar    1  UNL1       -0.0245
     29 C          65.3574   91.2678   14.8413 C.3     1  UNL1        0.0307
     30 C          64.2953   91.3076   12.4705 C.ar    1  UNL1       -0.0105
@<TRIPOS>BOND
     1    23    24    1
     2    24    25   ar
     3    25    26   ar
     4    26    27   ar
     5    27    28   ar
     6    28    29    1
     7    28    30   ar
     8    30    22    1
     9    22    20    1
    10    20     1    1
    11     1     2   ar
    12     2     3   ar
    13     3    12    1
    14    12    13   ar
    15    13    14   ar
    16    14    15   ar
    17    15    17    1
    18    17    18    1
    19    15    16   ar
    20     3     4   ar
    21     4     5   ar
    22     5     6   ar
    23     6     7    1
    24     6     8   ar
    25     8     9    1
    26     8    10   ar
    27    10    11   ar
    28    30    24   ar
    29    11     1   ar
    30    16    12   ar
    31    11     5   ar
    32    20    21    1
    33    18    19    1
@<TRIPOS>MOLECULE
*****
 30 33 0 0 0
SMALL
GASTEIGER

@<TRIPOS>ATOM
      1 C          62.2545   87.2653   11.7870 C.ar    1  UNL1        0.0814
      2 C          63.1073   88.4100   12.2477 C.ar    1  UNL1        0.0381
      3 C          63.0873   89.7093   11.4984 C.ar    1  UNL1        0.1034
      4 C          62.2145   89.8638   10.2883 C.ar    1  UNL1        0.1005
      5 N          61.3617   88.7191    9.8276 N.ar    1  UNL1       -0.2905
      6 C          60.4080   88.5768    8.6786 C.ar    1  UNL1        0.0567
      7 C          60.0811   89.6358    7.6678 C.3     1  UNL1        0.0517
      8 C          59.8386   87.1896    8.7178 C.ar    1  UNL1        0.0730
      9 C          58.8423   86.6179    7.7530 C.3     1  UNL1        0.0534
     10 N          60.4404   86.4745    9.8910 N.ar    1  UNL1       -0.2299
     11 C          61.3817   87.4198   10.5769 C.ar    1  UNL1        0.1604
     12 N          63.9401   90.8541   11.9592 N.ar    1  UNL1       -0.2067
     13 C          64.2844   91.1801   13.3822 C.ar    1  UNL1        0.2014
     14 N          65.1554   92.4013   13.3803 N.ar    1  UNL1       -0.2047
     15 C          65.3493   92.8301   11.9560 C.ar    1  UNL1        0.1903
     16 N          64.5982   91.8738   11.0777 N.ar    1  UNL1       -0.1461
     17 C          66.1532   94.0083   11.4915 C.3     1  UNL1        0.2050
     18 O          65.7048   95.4004   11.8247 O.3     1  UNL1       -0.3748
     19 H          64.8671   95.5871   11.3727 H       1  UNL1        0.2110
     20 N          62.2746   85.9660   12.5363 N.pl3   1  UNL1       -0.3267
     21 H          61.5330   85.7352   13.1414 H       1  UNL1        0.1472
     22 C          63.4244   85.0183   12.3637 C.3     1  UNL1        0.1137
     23 C          63.8976   83.3943    9.8860 C.3     1  UNL1        0.0307
     24 C          63.4215   82.7257   11.1415 C.ar    1  UNL1       -0.0245
     25 C          63.1820   81.2449   11.1582 C.ar    1  UNL1       -0.0045
     26 C          62.7060   80.5763   12.4136 C.ar    1  UNL1       -0.0007
     27 C          62.4694   81.3883   13.6525 C.ar    1  UNL1       -0.0045
     28 C          62.7088   82.8689   13.6358 C.ar    1  UNL1       -0.0245
     29 C          62.4722   83.6809   14.8747 C.3     1  UNL1        0.0307
     30 C          63.1849   83.5377   12.3803 C.ar    1  UNL1       -0.0105
@<TRIPOS>BOND
     1    23    24    1
     2    24    25   ar
     3    25    26   ar
     4    26    27   ar
     5    27    28   ar
     6    28    29    1
     7    28    30   ar
     8    30    22    1
     9    22    20    1
    10    20     1    1
    11     1     2   ar
    12     2     3   ar
    13     3    12    1
    14    12    13   ar
    15    13    14   ar
    16    14    15   ar
    17    15    17    1
    18    17    18    1
    19    15    16   ar
    20     3     4   ar
    21     4     5   ar
    22     5     6   ar
    23     6     7    1
    24     6     8   ar
    25     8     9    1
    26     8    10   ar
    27    10    11   ar
    28    30    24   ar
    29    11     1   ar
    30    16    12   ar
    31    11     5   ar
    32    20    21    1
    33    18    19    1
@<TRIPOS>MOLECULE
*****
 30 33 0 0 0
SMALL
GASTEIGER

@<TRIPOS>ATOM
      1 C          63.7618   87.0837   13.7747 C.ar    1  UNL1        0.0814
      2 C          64.3872   88.2339   14.5067 C.ar    1  UNL1        0.0381
      3 C          64.2764   89.6239   13.9540 C.ar    1  UNL1        0.1034
      4 C          63.5402   89.8638   12.6693 C.ar    1  UNL1        0.1005
      5 N          62.9148   88.7136   11.9373 N.ar    1  UNL1       -0.2905
      6 C          62.1330   88.6432   10.6591 C.ar    1  UNL1        0.0567
      7 C          61.7847   89.8028    9.7737 C.3     1  UNL1        0.0517
      8 C          61.7606   87.2097   10.4218 C.ar    1  UNL1        0.0730
      9 C          60.9744   86.6841    9.2574 C.3     1  UNL1        0.0534
     10 N          62.3123   86.3940   11.5533 N.ar    1  UNL1       -0.2299
     11 C          63.0257   87.3236   12.4899 C.ar    1  UNL1        0.1604
     12 N          64.9018   90.7742   14.6861 N.ar    1  UNL1       -0.2067
     13 C          64.3262   91.4775   15.8793 C.ar    1  UNL1        0.2014
     14 N          65.2812   92.5611   16.2841 N.ar    1  UNL1       -0.2047
     15 C          66.4472   92.5274   15.3409 C.ar    1  UNL1        0.1903
     16 N          66.2126   91.4231   14.3533 N.ar    1  UNL1       -0.1461
     17 C          67.6384   93.4382   15.3787 C.3     1  UNL1        0.2050
     18 O          68.9415   92.9936   14.7835 O.3     1  UNL1       -0.3748
     19 H          69.2919   92.2468   15.2937 H       1  UNL1        0.2110
     20 N          63.8726   85.6936   14.3273 N.pl3   1  UNL1       -0.3267
     21 H          63.5983   85.5092   15.2547 H       1  UNL1        0.1472
     22 C          64.4015   84.5844   13.4670 C.3     1  UNL1        0.1137
     23 C          64.5383   83.0527   10.8912 C.3     1  UNL1        0.0307
     24 C          63.6794   82.5543   12.0154 C.ar    1  UNL1       -0.0245
     25 C          62.8889   81.2900   11.8518 C.ar    1  UNL1       -0.0045
     26 C          62.0301   80.7917   12.9760 C.ar    1  UNL1       -0.0007
     27 C          61.9617   81.5575   14.2640 C.ar    1  UNL1       -0.0045
     28 C          62.7521   82.8218   14.4276 C.ar    1  UNL1       -0.0245
     29 C          62.6838   83.5877   15.7156 C.3     1  UNL1        0.0307
     30 C          63.6110   83.3202   13.3034 C.ar    1  UNL1       -0.0105
@<TRIPOS>BOND
     1    23    24    1
     2    24    25   ar
     3    25    26   ar
     4    26    27   ar
     5    27    28   ar
     6    28    29    1
     7    28    30   ar
     8    30    22    1
     9    22    20    1
    10    20     1    1
    11     1     2   ar
    12     2     3   ar
    13     3    12    1
    14    12    13   ar
    15    13    14   ar
    16    14    15   ar
    17    15    17    1
    18    17    18    1
    19    15    16   ar
    20     3     4   ar
    21     4     5   ar
    22     5     6   ar
    23     6     7    1
    24     6     8   ar
    25     8     9    1
    26     8    10   ar
    27    10    11   ar
    28    30    24   ar
    29    11     1   ar
    30    16    12   ar
    31    11     5   ar
    32    20    21    1
    33    18    19    1
@<TRIPOS>MOLECULE
*****
 30 33 0 0 0
SMALL
GASTEIGER

@<TRIPOS>ATOM
      1 C          62.7288   86.8966   12.4623 C.ar    1  UNL1        0.0814
      2 C          63.4912   88.0314   13.0795 C.ar    1  UNL1        0.0381
      3 C          63.4164   89.4019   12.4744 C.ar    1  UNL1        0.1034
      4 C          62.5794   89.6375   11.2521 C.ar    1  UNL1        0.1005
      5 N          61.8171   88.5026   10.6350 N.ar    1  UNL1       -0.2905
      6 C          60.9158   88.4323    9.4381 C.ar    1  UNL1        0.0567
      7 C          60.5594   89.5753    8.5344 C.3     1  UNL1        0.0517
      8 C          60.4335   87.0184    9.3034 C.ar    1  UNL1        0.0730
      9 C          59.5100   86.4992    8.2414 C.3     1  UNL1        0.0534
     10 N          61.0367   86.2148   10.4171 N.ar    1  UNL1       -0.2299
     11 C          61.8918   87.1322   11.2401 C.ar    1  UNL1        0.1604
     12 N          64.1788   90.5369   13.0915 N.ar    1  UNL1       -0.2067
     13 C          64.7385   91.7225   12.3628 C.ar    1  UNL1        0.2014
     14 N          65.4209   92.6038   13.3666 N.ar    1  UNL1       -0.2047
     15 C          65.2829   91.9628   14.7158 C.ar    1  UNL1        0.1903
     16 N          64.5152   90.6854   14.5457 N.ar    1  UNL1       -0.1461
     17 C          65.8184   92.5043   16.0081 C.3     1  UNL1        0.2050
     18 O          64.8741   92.8991   17.1045 O.3     1  UNL1       -0.3748
     19 H          64.3446   93.6593   16.8171 H       1  UNL1        0.2110
     20 N          62.8035   85.5260   13.0674 N.pl3   1  UNL1       -0.3267
     21 H          62.2442   85.3003   13.8456 H       1  UNL1        0.1472
     22 C          63.7304   84.4994   12.4869 C.3     1  UNL1        0.1137
     23 C          62.6890   83.2412   15.0034 C.3     1  UNL1        0.0307
     24 C          62.8241   82.4208   13.7549 C.ar    1  UNL1       -0.0245
     25 C          62.4385   80.9712   13.7646 C.ar    1  UNL1       -0.0045
     26 C          62.5735   80.1508   12.5162 C.ar    1  UNL1       -0.0007
     27 C          63.0942   80.7799   11.2580 C.ar    1  UNL1       -0.0045
     28 C          63.4798   82.2294   11.2482 C.ar    1  UNL1       -0.0245
     29 C          64.0005   82.8585    9.9900 C.3     1  UNL1        0.0307
     30 C          63.3448   83.0499   12.4967 C.ar    1  UNL1       -0.0105
@<TRIPOS>BOND
     1    23    24    1
     2    24    25   ar
     3    25    26   ar
     4    26    27   ar
     5    27    28   ar
     6    28    29    1
     7    28    30   ar
     8    30    22    1
     9    22    20    1
    10    20     1    1
    11     1     2   ar
    12     2     3   ar
    13     3    12    1
    14    12    13   ar
    15    13    14   ar
    16    14    15   ar
    17    15    17    1
    18    17    18    1
    19    15    16   ar
    20     3     4   ar
    21     4     5   ar
    22     5     6   ar
    23     6     7    1
    24     6     8   ar
    25     8     9    1
    26     8    10   ar
    27    10    11   ar
    28    30    24   ar
    29    11     1   ar
    30    16    12   ar
    31    11     5   ar
    32    20    21    1
    33    18    19    1
@<TRIPOS>MOLECULE
*****
 30 33 0 0 0
SMALL
GASTEIGER

@<TRIPOS>ATOM
      1 C          62.4292   89.0213   10.8168 C.ar    1  UNL1        0.0814
      2 C          62.8795   87.8851   11.6862 C.ar    1  UNL1        0.0381
      3 C          62.3331   86.5064   11.4613 C.ar    1  UNL1        0.1034
      4 C          61.3363   86.2640   10.3669 C.ar    1  UNL1        0.1005
      5 N          60.8860   87.4003    9.4975 N.ar    1  UNL1       -0.2905
      6 C          59.9225   87.4651    8.3496 C.ar    1  UNL1        0.0567
      7 C          59.1446   86.3134    7.7854 C.3     1  UNL1        0.0517
      8 C          59.8735   88.8839    7.8651 C.ar    1  UNL1        0.0730
      9 C          59.0380   89.4000    6.7312 C.3     1  UNL1        0.0534
     10 N          60.8066   89.6959    8.7135 N.ar    1  UNL1       -0.2299
     11 C          61.4324   88.7789    9.7224 C.ar    1  UNL1        0.1604
     12 N          62.7834   85.3700   12.3308 N.ar    1  UNL1       -0.2067
     13 C          63.6427   85.4834   13.5551 C.ar    1  UNL1        0.2014
     14 N          63.8438   84.1043   14.1095 N.ar    1  UNL1       -0.2047
     15 C          63.1088   83.1385   13.2280 C.ar    1  UNL1        0.1903
     16 N          62.4535   83.9208   12.1287 N.ar    1  UNL1       -0.1461
     17 C          63.0411   81.6515   13.4132 C.3     1  UNL1        0.2050
     18 O          62.4529   81.0781   14.6682 O.3     1  UNL1       -0.3748
     19 H          63.0146   81.3104   15.4241 H       1  UNL1        0.2110
     20 N          62.9756   90.4001   11.0416 N.pl3   1  UNL1       -0.3267
     21 H          63.2227   90.9631   10.2728 H       1  UNL1        0.1472
     22 C          63.1456   90.9209   12.4380 C.3     1  UNL1        0.1137
     23 C          64.1054   89.8288   15.0622 C.3     1  UNL1        0.0307
     24 C          64.9916   90.7317   14.2564 C.ar    1  UNL1       -0.0245
     25 C          66.3578   91.0886   14.7626 C.ar    1  UNL1       -0.0045
     26 C          67.2440   91.9915   13.9568 C.ar    1  UNL1       -0.0007
     27 C          66.7641   92.5376   12.6447 C.ar    1  UNL1       -0.0045
     28 C          65.3980   92.1807   12.1385 C.ar    1  UNL1       -0.0245
     29 C          64.9181   92.7267   10.8264 C.3     1  UNL1        0.0307
     30 C          64.5117   91.2778   12.9443 C.ar    1  UNL1       -0.0105
@<TRIPOS>BOND
     1    23    24    1
     2    24    25   ar
     3    25    26   ar
     4    26    27   ar
     5    27    28   ar
     6    28    29    1
     7    28    30   ar
     8    30    22    1
     9    22    20    1
    10    20     1    1
    11     1     2   ar
    12     2     3   ar
    13     3    12    1
    14    12    13   ar
    15    13    14   ar
    16    14    15   ar
    17    15    17    1
    18    17    18    1
    19    15    16   ar
    20     3     4   ar
    21     4     5   ar
    22     5     6   ar
    23     6     7    1
    24     6     8   ar
    25     8     9    1
    26     8    10   ar
    27    10    11   ar
    28    30    24   ar
    29    11     1   ar
    30    16    12   ar
    31    11     5   ar
    32    20    21    1
    33    18    19    1
@<TRIPOS>MOLECULE
*****
 30 33 0 0 0
SMALL
GASTEIGER

@<TRIPOS>ATOM
      1 C          62.1183   88.6284   11.3916 C.ar    1  UNL1        0.0814
      2 C          62.6785   87.4537   12.1374 C.ar    1  UNL1        0.0381
      3 C          62.4424   86.0618   11.6307 C.ar    1  UNL1        0.1034
      4 C          61.6460   85.8446   10.3783 C.ar    1  UNL1        0.1005
      5 N          61.0857   87.0192    9.6326 N.ar    1  UNL1       -0.2905
      6 C          60.2678   87.1149    8.3788 C.ar    1  UNL1        0.0567
      7 C          59.8012   85.9619    7.5405 C.3     1  UNL1        0.0517
      8 C          59.9985   88.5659    8.1106 C.ar    1  UNL1        0.0730
      9 C          59.2152   89.1187    6.9569 C.3     1  UNL1        0.0534
     10 N          60.6499   89.3671    9.1986 N.ar    1  UNL1       -0.2299
     11 C          61.3219   88.4111   10.1392 C.ar    1  UNL1        0.1604
     12 N          63.0027   84.8870   12.3765 N.ar    1  UNL1       -0.2067
     13 C          63.8963   84.9511   13.5795 C.ar    1  UNL1        0.2014
     14 N          64.2136   83.5456   13.9966 N.ar    1  UNL1       -0.2047
     15 C          63.5160   82.6129   13.0514 C.ar    1  UNL1        0.1903
     16 N          62.7676   83.4419   12.0501 N.ar    1  UNL1       -0.1461
     17 C          63.5592   81.1143   13.0991 C.3     1  UNL1        0.2050
     18 O          62.9761   80.3842   14.2725 O.3     1  UNL1       -0.3748
     19 H          63.4922   80.5869   15.0684 H       1  UNL1        0.2110
     20 N          62.3544   90.0204   11.8983 N.pl3   1  UNL1       -0.3267
     21 H          61.7359   90.7456   11.6516 H       1  UNL1        0.1472
     22 C          63.5329   90.3075   12.7807 C.3     1  UNL1        0.1137
     23 C          63.4697   91.5153   10.0354 C.3     1  UNL1        0.0307
     24 C          64.4549   92.0128   11.0511 C.ar    1  UNL1       -0.0245
     25 C          65.4085   93.1143   10.6942 C.ar    1  UNL1       -0.0045
     26 C          66.3938   93.6119   11.7099 C.ar    1  UNL1       -0.0007
     27 C          66.4254   93.0079   13.0826 C.ar    1  UNL1       -0.0045
     28 C          65.4718   91.9065   13.4396 C.ar    1  UNL1       -0.0245
     29 C          65.5034   91.3026   14.8123 C.3     1  UNL1        0.0307
     30 C          64.4865   91.4089   12.4238 C.ar    1  UNL1       -0.0105
@<TRIPOS>BOND
     1    23    24    1
     2    24    25   ar
     3    25    26   ar
     4    26    27   ar
     5    27    28   ar
     6    28    29    1
     7    28    30   ar
     8    30    22    1
     9    22    20    1
    10    20     1    1
    11     1     2   ar
    12     2     3   ar
    13     3    12    1
    14    12    13   ar
    15    13    14   ar
    16    14    15   ar
    17    15    17    1
    18    17    18    1
    19    15    16   ar
    20     3     4   ar
    21     4     5   ar
    22     5     6   ar
    23     6     7    1
    24     6     8   ar
    25     8     9    1
    26     8    10   ar
    27    10    11   ar
    28    30    24   ar
    29    11     1   ar
    30    16    12   ar
    31    11     5   ar
    32    20    21    1
    33    18    19    1
@<TRIPOS>MOLECULE
*****
 30 33 0 0 0
SMALL
GASTEIGER

@<TRIPOS>ATOM
      1 C          62.3213   89.1540   10.6138 C.ar    1  UNL1        0.0814
      2 C          62.7611   88.0049   11.4717 C.ar    1  UNL1        0.0381
      3 C          62.1854   86.6381   11.2474 C.ar    1  UNL1        0.1034
      4 C          61.1698   86.4204   10.1651 C.ar    1  UNL1        0.1005
      5 N          60.7300   87.5695    9.3072 N.ar    1  UNL1       -0.2905
      6 C          59.7530   87.6586    8.1725 C.ar    1  UNL1        0.0567
      7 C          58.9458   86.5249    7.6130 C.3     1  UNL1        0.0517
      8 C          59.7248   89.0805    7.6956 C.ar    1  UNL1        0.0730
      9 C          58.8846   89.6183    6.5753 C.3     1  UNL1        0.0534
     10 N          60.6845   89.8702    8.5354 N.ar    1  UNL1       -0.2299
     11 C          61.3057   88.9363    9.5315 C.ar    1  UNL1        0.1604
     12 N          62.6252   85.4889   12.1053 N.ar    1  UNL1       -0.2067
     13 C          62.6924   84.0504   11.6856 C.ar    1  UNL1        0.2014
     14 N          63.1837   83.2490   12.8545 N.ar    1  UNL1       -0.2047
     15 C          63.4202   84.1922   13.9967 C.ar    1  UNL1        0.1903
     16 N          63.0750   85.5766   13.5336 N.ar    1  UNL1       -0.1461
     17 C          63.9150   83.8170   15.3621 C.3     1  UNL1        0.2050
     18 O          64.4975   84.8653   16.2630 O.3     1  UNL1       -0.3748
     19 H          65.3223   85.2006   15.8779 H       1  UNL1        0.2110
     20 N          62.8970   90.5209   10.8381 N.pl3   1  UNL1       -0.3267
     21 H          63.1784   91.0687   10.0699 H       1  UNL1        0.1472
     22 C          63.0440   91.0532   12.2327 C.3     1  UNL1        0.1137
     23 C          64.9529   92.7817   10.6938 C.3     1  UNL1        0.0307
     24 C          65.3627   92.2049   12.0164 C.ar    1  UNL1       -0.0245
     25 C          66.7271   92.4924   12.5696 C.ar    1  UNL1       -0.0045
     26 C          67.1369   91.9157   13.8922 C.ar    1  UNL1       -0.0007
     27 C          66.1825   91.0514   14.6617 C.ar    1  UNL1       -0.0045
     28 C          64.8182   90.7639   14.1085 C.ar    1  UNL1       -0.0245
     29 C          63.8637   89.8997   14.8780 C.3     1  UNL1        0.0307
     30 C          64.4083   91.3407   12.7859 C.ar    1  UNL1       -0.0105
@<TRIPOS>BOND
     1    23    24    1
     2    24    25   ar
     3    25    26   ar
     4    26    27   ar
     5    27    28   ar
     6    28    29    1
     7    28    30   ar
     8    30    22    1
     9    22    20    1
    10    20     1    1
    11     1     2   ar
    12     2     3   ar
    13     3    12    1
    14    12    13   ar
    15    13    14   ar
    16    14    15   ar
    17    15    17    1
    18    17    18    1
    19    15    16   ar
    20     3     4   ar
    21     4     5   ar
    22     5     6   ar
    23     6     7    1
    24     6     8   ar
    25     8     9    1
    26     8    10   ar
    27    10    11   ar
    28    30    24   ar
    29    11     1   ar
    30    16    12   ar
    31    11     5   ar
    32    20    21    1
    33    18    19    1
@<TRIPOS>MOLECULE
*****
 30 33 0 0 0
SMALL
GASTEIGER

@<TRIPOS>ATOM
      1 C          62.4318   86.8356   12.1945 C.ar    1  UNL1        0.0814
      2 C          61.5744   86.8738   10.9644 C.ar    1  UNL1        0.0381
      3 C          61.4349   88.1489   10.1868 C.ar    1  UNL1        0.1034
      4 C          62.1527   89.3857   10.6395 C.ar    1  UNL1        0.1005
      5 N          63.0101   89.3475   11.8696 N.ar    1  UNL1       -0.2905
      6 C          63.8319   90.3997   12.5534 C.ar    1  UNL1        0.0567
      7 C          63.9802   91.8262   12.1141 C.3     1  UNL1        0.0517
      8 C          64.4794   89.7748   13.7536 C.ar    1  UNL1        0.0730
      9 C          65.3889   90.4669   14.7252 C.3     1  UNL1        0.0534
     10 N          64.0577   88.3365   13.8116 N.ar    1  UNL1       -0.2299
     11 C          63.1496   88.0724   12.6472 C.ar    1  UNL1        0.1604
     12 N          60.5775   88.1871    8.9566 N.ar    1  UNL1       -0.2067
     13 C          59.9292   87.0064    8.2966 C.ar    1  UNL1        0.2014
     14 N          59.1689   87.5024    7.1025 N.ar    1  UNL1       -0.2047
     15 C          59.3473   88.9898    7.0244 C.ar    1  UNL1        0.1903
     16 N          60.2178   89.4129    8.1703 N.ar    1  UNL1       -0.1461
     17 C          58.7585   89.8950    5.9833 C.3     1  UNL1        0.2050
     18 O          59.4701   91.1582    5.5986 O.3     1  UNL1       -0.3748
     19 H          59.4814   91.7659    6.3546 H       1  UNL1        0.2110
     20 N          62.5714   85.5604   12.9722 N.pl3   1  UNL1       -0.3267
     21 H          61.9479   85.3616   13.7076 H       1  UNL1        0.1472
     22 C          63.6611   84.5883   12.6292 C.3     1  UNL1        0.1137
     23 C          62.6926   82.9626   14.9571 C.3     1  UNL1        0.0307
     24 C          62.8550   82.3218   13.6106 C.ar    1  UNL1       -0.0245
     25 C          62.5332   80.8681   13.4280 C.ar    1  UNL1       -0.0045
     26 C          62.6955   80.2274   12.0816 C.ar    1  UNL1       -0.0007
     27 C          63.1797   81.0402   10.9176 C.ar    1  UNL1       -0.0045
     28 C          63.5016   82.4938   11.1001 C.ar    1  UNL1       -0.0245
     29 C          63.9858   83.3067    9.9362 C.3     1  UNL1        0.0307
     30 C          63.3392   83.1347   12.4467 C.ar    1  UNL1       -0.0105
@<TRIPOS>BOND
     1    23    24    1
     2    24    25   ar
     3    25    26   ar
     4    26    27   ar
     5    27    28   ar
     6    28    29    1
     7    28    30   ar
     8    30    22    1
     9    22    20    1
    10    20     1    1
    11     1     2   ar
    12     2     3   ar
    13     3    12    1
    14    12    13   ar
    15    13    14   ar
    16    14    15   ar
    17    15    17    1
    18    17    18    1
    19    15    16   ar
    20     3     4   ar
    21     4     5   ar
    22     5     6   ar
    23     6     7    1
    24     6     8   ar
    25     8     9    1
    26     8    10   ar
    27    10    11   ar
    28    30    24   ar
    29    11     1   ar
    30    16    12   ar
    31    11     5   ar
    32    20    21    1
    33    18    19    1
@<TRIPOS>MOLECULE
*****
 30 33 0 0 0
SMALL
GASTEIGER

@<TRIPOS>ATOM
      1 C          63.0958   86.6260   12.6346 C.ar    1  UNL1        0.0814
      2 C          62.4407   86.0540   11.4125 C.ar    1  UNL1        0.0381
      3 C          62.0718   86.9523   10.2693 C.ar    1  UNL1        0.1034
      4 C          62.3578   88.4226   10.3483 C.ar    1  UNL1        0.1005
      5 N          63.0128   88.9947   11.5705 N.ar    1  UNL1       -0.2905
      6 C          63.4156   90.3937   11.9317 C.ar    1  UNL1        0.0567
      7 C          63.2325   91.6124   11.0766 C.3     1  UNL1        0.0517
      8 C          64.0335   90.3600   13.2981 C.ar    1  UNL1        0.0730
      9 C          64.5768   91.5393   14.0493 C.3     1  UNL1        0.0534
     10 N          64.0126   88.9402   13.7814 N.ar    1  UNL1       -0.2299
     11 C          63.3818   88.0964   12.7136 C.ar    1  UNL1        0.1604
     12 N          61.4167   86.3803    9.0471 N.ar    1  UNL1       -0.2067
     13 C          59.9989   86.6128    8.6160 C.ar    1  UNL1        0.2014
     14 N          59.7704   85.8515    7.3439 N.ar    1  UNL1       -0.2047
     15 C          61.0470   85.1485    6.9887 C.ar    1  UNL1        0.1903
     16 N          62.0644   85.4753    8.0414 N.ar    1  UNL1       -0.1461
     17 C          61.2675   84.2725    5.7912 C.3     1  UNL1        0.2050
     18 O          62.5830   84.3036    5.0713 O.3     1  UNL1       -0.3748
     19 H          62.7065   85.1738    4.6608 H       1  UNL1        0.2110
     20 N          63.4648   85.7277   13.7778 N.pl3   1  UNL1       -0.3267
     21 H          63.2061   85.9687   14.6966 H       1  UNL1        0.1472
     22 C          64.2280   84.4621   13.5211 C.3     1  UNL1        0.1137
     23 C          64.5384   82.8513   11.0093 C.3     1  UNL1        0.0307
     24 C          63.6504   82.3568   12.1125 C.ar    1  UNL1       -0.0245
     25 C          62.9176   81.0569   11.9598 C.ar    1  UNL1       -0.0045
     26 C          62.0296   80.5625   13.0630 C.ar    1  UNL1       -0.0007
     27 C          61.8744   81.3679   14.3189 C.ar    1  UNL1       -0.0045
     28 C          62.6072   82.6677   14.4716 C.ar    1  UNL1       -0.0245
     29 C          62.4520   83.4732   15.7274 C.3     1  UNL1        0.0307
     30 C          63.4952   83.1623   13.3684 C.ar    1  UNL1       -0.0105
@<TRIPOS>BOND
     1    23    24    1
     2    24    25   ar
     3    25    26   ar
     4    26    27   ar
     5    27    28   ar
     6    28    29    1
     7    28    30   ar
     8    30    22    1
     9    22    20    1
    10    20     1    1
    11     1     2   ar
    12     2     3   ar
    13     3    12    1
    14    12    13   ar
    15    13    14   ar
    16    14    15   ar
    17    15    17    1
    18    17    18    1
    19    15    16   ar
    20     3     4   ar
    21     4     5   ar
    22     5     6   ar
    23     6     7    1
    24     6     8   ar
    25     8     9    1
    26     8    10   ar
    27    10    11   ar
    28    30    24   ar
    29    11     1   ar
    30    16    12   ar
    31    11     5   ar
    32    20    21    1
    33    18    19    1
