@<TRIPOS>MOLECULE
*****
 33 36 0 0 0
SMALL
GASTEIGER

@<TRIPOS>ATOM
      1 C          62.1172   86.7026   10.4541 C.2     1  UNL1        0.2320
      2 O          62.5963   87.0916    9.0870 O.2     1  UNL1       -0.2744
      3 N          62.1029   87.7156   11.5602 N.am    1  UNL1       -0.2639
      4 H          61.7884   87.4603   12.4575 H       1  UNL1        0.1567
      5 C          62.5677   89.1176   11.2993 C.ar    1  UNL1        0.1655
      6 N          63.7585   89.7824   11.9239 N.ar    1  UNL1       -0.2239
      7 C          63.8502   91.1767   11.3786 C.ar    1  UNL1        0.0914
      8 C          62.7160   91.3738   10.4169 C.ar    1  UNL1        0.0573
      9 S          61.9234   90.1012   10.3679 S.2     1  UNL1       -0.0508
     10 C          64.8929   92.1952   11.7327 C.ar    1  UNL1        0.0411
     11 C          65.4870   93.2095   10.8009 C.ar    1  UNL1        0.1021
     12 N          66.4859   94.0193   11.5731 N.ar    1  UNL1       -0.2269
     13 C          66.5091   93.5055   12.9822 C.ar    1  UNL1        0.1414
     14 N          67.2996   93.9186   14.1882 N.ar    1  UNL1       -0.3374
     15 C          67.1056   93.2043   15.4928 C.ar    1  UNL1        0.0744
     16 C          66.1210   92.0769   15.5914 C.ar    1  UNL1        0.0300
     17 C          65.3306   91.6638   14.3854 C.ar    1  UNL1        0.0621
     18 CL         64.3461   90.5364   14.4840 Cl      1  UNL1       -0.0821
     19 C          65.5246   92.3781   13.0808 C.ar    1  UNL1        0.0475
     20 H          67.9458   94.6585   14.1235 H       1  UNL1        0.1674
     21 C          61.6523   85.3005   10.7151 C.3     1  UNL1        0.1117
     22 C          63.6013   83.5420   13.6915 C.ar    1  UNL1        0.0641
     23 C          64.2977   82.4338   12.9588 C.ar    1  UNL1        0.0158
     24 C          64.1123   82.2811   11.4781 C.ar    1  UNL1        0.0010
     25 C          63.2304   83.2367   10.7302 C.ar    1  UNL1       -0.0037
     26 C          62.5341   84.3450   11.4630 C.ar    1  UNL1       -0.0118
     27 C          62.7195   84.4976   12.9437 C.ar    1  UNL1        0.0121
     28 N          63.7867   83.6947   15.1721 N.pl3   1  UNL1       -0.2187
     29 H          64.0353   82.9155   15.7200 H       1  UNL1        0.1734
     30 C          63.4001   86.3747   16.4638 C.3     1  UNL1        0.1996
     31 S          63.5934   85.0347   15.8180 S.O2    1  UNL1        0.0558
     32 O          64.9061   85.4947   15.2564 O.2     1  UNL1       -0.1544
     33 O          62.2807   84.5747   16.3795 O.2     1  UNL1       -0.1544
@<TRIPOS>BOND
     1    30    31    1
     2    31    32    2
     3    31    33    2
     4    31    28    1
     5    28    22    1
     6    22    23   ar
     7    23    24   ar
     8    24    25   ar
     9    25    26   ar
    10    26    21    1
    11    21     1    1
    12     1     2    2
    13     1     3   am
    14     3     5    1
    15     5     6   ar
    16     6     7   ar
    17     7    10    1
    18    10    11   ar
    19    11    12   ar
    20    12    13   ar
    21    13    14   ar
    22    14    15   ar
    23    15    16   ar
    24    16    17   ar
    25    17    18    1
    26    17    19   ar
    27     7     8   ar
    28     8     9   ar
    29    26    27   ar
    30    27    22   ar
    31     9     5   ar
    32    19    10   ar
    33    19    13    1
    34    28    29    1
    35     3     4    1
    36    14    20    1
@<TRIPOS>MOLECULE
*****
 33 36 0 0 0
SMALL
GASTEIGER

@<TRIPOS>ATOM
      1 C          63.4227   90.0286   14.4575 C.2     1  UNL1        0.2320
      2 O          63.7466   88.5935   14.7500 O.2     1  UNL1       -0.2744
      3 N          62.6224   90.3837   13.2396 N.am    1  UNL1       -0.2639
      4 H          62.4098   91.3256   13.0476 H       1  UNL1        0.1567
      5 C          62.1460   89.3037   12.3142 C.ar    1  UNL1        0.1655
      6 N          62.9646   88.1547   11.8045 N.ar    1  UNL1       -0.2239
      7 C          62.0919   87.3239   10.9112 C.ar    1  UNL1        0.0914
      8 C          60.7338   87.9593   10.8687 C.ar    1  UNL1        0.0573
      9 S          60.7672   89.1829   11.7358 S.2     1  UNL1       -0.0508
     10 C          62.5047   86.0766   10.1874 C.ar    1  UNL1        0.0411
     11 C          62.4675   85.8654    8.7029 C.ar    1  UNL1        0.1021
     12 N          62.9670   84.4798    8.4191 N.ar    1  UNL1       -0.2269
     13 C          63.3129   83.8345    9.7284 C.ar    1  UNL1        0.1414
     14 N          63.8510   82.4759   10.0666 N.ar    1  UNL1       -0.3374
     15 C          64.1035   82.1041   11.4976 C.ar    1  UNL1        0.0744
     16 C          63.8177   83.0910   12.5905 C.ar    1  UNL1        0.0300
     17 C          63.2796   84.4497   12.2523 C.ar    1  UNL1        0.0621
     18 CL         62.9938   85.4366   13.3452 Cl      1  UNL1       -0.0821
     19 C          63.0271   84.8214   10.8213 C.ar    1  UNL1        0.0475
     20 H          64.0386   81.8282    9.3493 H       1  UNL1        0.1674
     21 C          63.8991   91.1087   15.3830 C.3     1  UNL1        0.1117
     22 C          67.2185   92.3538   13.5994 C.ar    1  UNL1        0.0641
     23 C          67.9351   92.9956   14.7502 C.ar    1  UNL1        0.0158
     24 C          67.3064   93.0085   16.1121 C.ar    1  UNL1        0.0010
     25 C          65.9610   92.3795   16.3230 C.ar    1  UNL1       -0.0037
     26 C          65.2444   91.7377   15.1721 C.ar    1  UNL1       -0.0118
     27 C          65.8732   91.7249   13.8102 C.ar    1  UNL1        0.0121
     28 N          67.8472   92.3410   12.2375 N.pl3   1  UNL1       -0.2187
     29 H          68.7130   91.8931   12.0993 H       1  UNL1        0.1734
     30 C          66.4664   93.6798    9.9351 C.3     1  UNL1        0.1996
     31 S          67.1568   93.0104   11.0864 S.O2    1  UNL1        0.0558
     32 O          67.5959   91.9007   10.1776 O.2     1  UNL1       -0.1544
     33 O          66.7176   94.1201   11.9950 O.2     1  UNL1       -0.1544
@<TRIPOS>BOND
     1    30    31    1
     2    31    32    2
     3    31    33    2
     4    31    28    1
     5    28    22    1
     6    22    23   ar
     7    23    24   ar
     8    24    25   ar
     9    25    26   ar
    10    26    21    1
    11    21     1    1
    12     1     2    2
    13     1     3   am
    14     3     5    1
    15     5     6   ar
    16     6     7   ar
    17     7    10    1
    18    10    11   ar
    19    11    12   ar
    20    12    13   ar
    21    13    14   ar
    22    14    15   ar
    23    15    16   ar
    24    16    17   ar
    25    17    18    1
    26    17    19   ar
    27     7     8   ar
    28     8     9   ar
    29    26    27   ar
    30    27    22   ar
    31     9     5   ar
    32    19    10   ar
    33    19    13    1
    34    28    29    1
    35     3     4    1
    36    14    20    1
@<TRIPOS>MOLECULE
*****
 33 36 0 0 0
SMALL
GASTEIGER

@<TRIPOS>ATOM
      1 C          64.0029   88.9805   14.1924 C.2     1  UNL1        0.2320
      2 O          64.6197   87.6612   14.5516 O.2     1  UNL1       -0.2744
      3 N          63.0909   89.0838   13.0061 N.am    1  UNL1       -0.2639
      4 H          62.6860   89.9497   12.7703 H       1  UNL1        0.1567
      5 C          62.7956   87.8679   12.1789 C.ar    1  UNL1        0.1655
      6 N          63.3297   86.4870   12.4192 N.ar    1  UNL1       -0.2239
      7 C          62.7786   85.5850   11.3550 C.ar    1  UNL1        0.0914
      8 C          61.9038   86.4084   10.4569 C.ar    1  UNL1        0.0573
      9 S          61.9143   87.8193   10.9661 S.2     1  UNL1       -0.0508
     10 C          63.0539   84.1172   11.2137 C.ar    1  UNL1        0.0411
     11 C          63.6132   83.4381    9.9988 C.ar    1  UNL1        0.1021
     12 N          63.7232   81.9721   10.2968 N.ar    1  UNL1       -0.2269
     13 C          63.2319   81.7452   11.6958 C.ar    1  UNL1        0.1414
     14 N          63.1078   80.5027   12.5269 N.ar    1  UNL1       -0.3374
     15 C          62.5700   80.5860   13.9246 C.ar    1  UNL1        0.0744
     16 C          62.1564   81.9118   14.4913 C.ar    1  UNL1        0.0300
     17 C          62.2805   83.1543   13.6603 C.ar    1  UNL1        0.0621
     18 CL         61.8669   84.4801   14.2270 Cl      1  UNL1       -0.0821
     19 C          62.8183   83.0710   12.2625 C.ar    1  UNL1        0.0475
     20 H          63.3793   79.6326   12.1549 H       1  UNL1        0.1674
     21 C          64.2982   90.1964   15.0196 C.3     1  UNL1        0.1117
     22 C          65.6250   92.8381   12.3717 C.ar    1  UNL1        0.0641
     23 C          66.5604   93.6460   13.2215 C.ar    1  UNL1        0.0158
     24 C          66.7417   93.3041   14.6707 C.ar    1  UNL1        0.0010
     25 C          65.9877   92.1542   15.2701 C.ar    1  UNL1       -0.0037
     26 C          65.0522   91.3463   14.4202 C.ar    1  UNL1       -0.0118
     27 C          64.8709   91.6882   12.9710 C.ar    1  UNL1        0.0121
     28 N          65.4436   93.1799   10.9224 N.pl3   1  UNL1       -0.2187
     29 H          64.6014   92.9545   10.4652 H       1  UNL1        0.1734
     30 C          67.6473   94.5507    9.4174 C.3     1  UNL1        0.1996
     31 S          66.5455   93.8652   10.1699 S.O2    1  UNL1        0.0558
     32 O          65.8038   95.1654   10.2680 O.2     1  UNL1       -0.1544
     33 O          67.2872   92.5652   10.0718 O.2     1  UNL1       -0.1544
@<TRIPOS>BOND
     1    30    31    1
     2    31    32    2
     3    31    33    2
     4    31    28    1
     5    28    22    1
     6    22    23   ar
     7    23    24   ar
     8    24    25   ar
     9    25    26   ar
    10    26    21    1
    11    21     1    1
    12     1     2    2
    13     1     3   am
    14     3     5    1
    15     5     6   ar
    16     6     7   ar
    17     7    10    1
    18    10    11   ar
    19    11    12   ar
    20    12    13   ar
    21    13    14   ar
    22    14    15   ar
    23    15    16   ar
    24    16    17   ar
    25    17    18    1
    26    17    19   ar
    27     7     8   ar
    28     8     9   ar
    29    26    27   ar
    30    27    22   ar
    31     9     5   ar
    32    19    10   ar
    33    19    13    1
    34    28    29    1
    35     3     4    1
    36    14    20    1
@<TRIPOS>MOLECULE
*****
 33 36 0 0 0
SMALL
GASTEIGER

@<TRIPOS>ATOM
      1 C          63.5848   89.2059   14.5191 C.2     1  UNL1        0.2320
      2 O          63.3144   88.8235   15.9441 O.2     1  UNL1       -0.2744
      3 N          63.9087   88.1472   13.5070 N.am    1  UNL1       -0.2639
      4 H          64.0861   88.3982   12.5717 H       1  UNL1        0.1567
      5 C          63.9623   86.7062   13.9199 C.ar    1  UNL1        0.1655
      6 N          63.1465   85.5908   13.3364 N.ar    1  UNL1       -0.2239
      7 C          63.5211   84.3228   14.0447 C.ar    1  UNL1        0.0914
      8 C          64.5684   84.6544   15.0661 C.ar    1  UNL1        0.0573
      9 S          64.8411   86.1274   14.9890 S.2     1  UNL1       -0.0508
     10 C          62.9489   82.9621   13.7785 C.ar    1  UNL1        0.0411
     11 C          62.1020   82.1615   14.7229 C.ar    1  UNL1        0.1021
     12 N          61.7529   80.8676   14.0491 N.ar    1  UNL1       -0.2269
     13 C          62.3839   80.8685   12.6883 C.ar    1  UNL1        0.1414
     14 N          62.3809   79.8579   11.5799 N.ar    1  UNL1       -0.3374
     15 C          63.1172   80.1417   10.3043 C.ar    1  UNL1        0.0744
     16 C          63.8564   81.4362   10.1370 C.ar    1  UNL1        0.0300
     17 C          63.8594   82.4468   11.2454 C.ar    1  UNL1        0.0621
     18 CL         64.5986   83.7412   11.0781 Cl      1  UNL1       -0.0821
     19 C          63.1231   82.1630   12.5210 C.ar    1  UNL1        0.0475
     20 H          61.8958   79.0083   11.6897 H       1  UNL1        0.1674
     21 C          63.5312   90.6469   14.1061 C.3     1  UNL1        0.1117
     22 C          65.8598   92.5803   11.5391 C.ar    1  UNL1        0.0641
     23 C          67.1555   92.6046   12.2945 C.ar    1  UNL1        0.0158
     24 C          67.2431   91.9763   13.6538 C.ar    1  UNL1        0.0010
     25 C          66.0349   91.3237   14.2577 C.ar    1  UNL1       -0.0037
     26 C          64.7392   91.2995   13.5022 C.ar    1  UNL1       -0.0118
     27 C          64.6517   91.9278   12.1429 C.ar    1  UNL1        0.0121
     28 N          65.7723   93.2085   10.1798 N.pl3   1  UNL1       -0.2187
     29 H          65.2059   92.8015    9.4850 H       1  UNL1        0.1734
     30 C          67.3228   95.7055    9.5787 C.3     1  UNL1        0.1996
     31 S          66.5475   94.4569    9.8792 S.O2    1  UNL1        0.0558
     32 O          65.5811   95.2555   10.7030 O.2     1  UNL1       -0.1544
     33 O          67.5140   93.6586    9.0555 O.2     1  UNL1       -0.1544
@<TRIPOS>BOND
     1    30    31    1
     2    31    32    2
     3    31    33    2
     4    31    28    1
     5    28    22    1
     6    22    23   ar
     7    23    24   ar
     8    24    25   ar
     9    25    26   ar
    10    26    21    1
    11    21     1    1
    12     1     2    2
    13     1     3   am
    14     3     5    1
    15     5     6   ar
    16     6     7   ar
    17     7    10    1
    18    10    11   ar
    19    11    12   ar
    20    12    13   ar
    21    13    14   ar
    22    14    15   ar
    23    15    16   ar
    24    16    17   ar
    25    17    18    1
    26    17    19   ar
    27     7     8   ar
    28     8     9   ar
    29    26    27   ar
    30    27    22   ar
    31     9     5   ar
    32    19    10   ar
    33    19    13    1
    34    28    29    1
    35     3     4    1
    36    14    20    1
@<TRIPOS>MOLECULE
*****
 33 36 0 0 0
SMALL
GASTEIGER

@<TRIPOS>ATOM
      1 C          61.5630   87.3079   11.1461 C.2     1  UNL1        0.2320
      2 O          60.4132   88.2066   11.4929 O.2     1  UNL1       -0.2744
      3 N          62.9679   87.7359   11.4511 N.am    1  UNL1       -0.2639
      4 H          63.7226   87.1461   11.2235 H       1  UNL1        0.1567
      5 C          63.2230   89.0625   12.1028 C.ar    1  UNL1        0.1655
      6 N          63.9073   89.2810   13.4197 N.ar    1  UNL1       -0.2239
      7 C          63.9458   90.7571   13.6829 C.ar    1  UNL1        0.0914
      8 C          63.2855   91.4512   12.5287 C.ar    1  UNL1        0.0573
      9 S          62.8387   90.4039   11.5521 S.2     1  UNL1       -0.0508
     10 C          64.5404   91.4226   14.8886 C.ar    1  UNL1        0.0411
     11 C          63.8814   91.5724   16.2277 C.ar    1  UNL1        0.1021
     12 N          64.8321   92.2974   17.1336 N.ar    1  UNL1       -0.2269
     13 C          66.0786   92.5956   16.3543 C.ar    1  UNL1        0.1414
     14 N          67.3546   93.2896   16.7289 N.ar    1  UNL1       -0.3374
     15 C          68.4502   93.4429   15.7160 C.ar    1  UNL1        0.0744
     16 C          68.2699   92.9022   14.3285 C.ar    1  UNL1        0.0300
     17 C          66.9940   92.2082   13.9539 C.ar    1  UNL1        0.0621
     18 CL         66.8137   91.6675   12.5664 Cl      1  UNL1       -0.0821
     19 C          65.8984   92.0549   14.9668 C.ar    1  UNL1        0.0475
     20 H          67.4729   93.6445   17.6395 H       1  UNL1        0.1674
     21 C          61.3080   85.9812   10.4943 C.3     1  UNL1        0.1117
     22 C          63.5165   83.0927   12.0846 C.ar    1  UNL1        0.0641
     23 C          64.3202   82.6619   10.8936 C.ar    1  UNL1        0.0158
     24 C          64.1197   83.3375    9.5694 C.ar    1  UNL1        0.0010
     25 C          63.1156   84.4440    9.4363 C.ar    1  UNL1       -0.0037
     26 C          62.3120   84.8748   10.6275 C.ar    1  UNL1       -0.0118
     27 C          62.5125   84.1991   11.9516 C.ar    1  UNL1        0.0121
     28 N          63.7170   82.4171   13.4088 N.pl3   1  UNL1       -0.2187
     29 H          64.1430   81.5305   13.4495 H       1  UNL1        0.1734
     30 C          62.8196   83.7676   15.9329 C.3     1  UNL1        0.1996
     31 S          63.2684   83.0924   14.6708 S.O2    1  UNL1        0.0558
     32 O          61.9938   82.3019   14.6407 O.2     1  UNL1       -0.1544
     33 O          64.5428   83.8828   14.7010 O.2     1  UNL1       -0.1544
@<TRIPOS>BOND
     1    30    31    1
     2    31    32    2
     3    31    33    2
     4    31    28    1
     5    28    22    1
     6    22    23   ar
     7    23    24   ar
     8    24    25   ar
     9    25    26   ar
    10    26    21    1
    11    21     1    1
    12     1     2    2
    13     1     3   am
    14     3     5    1
    15     5     6   ar
    16     6     7   ar
    17     7    10    1
    18    10    11   ar
    19    11    12   ar
    20    12    13   ar
    21    13    14   ar
    22    14    15   ar
    23    15    16   ar
    24    16    17   ar
    25    17    18    1
    26    17    19   ar
    27     7     8   ar
    28     8     9   ar
    29    26    27   ar
    30    27    22   ar
    31     9     5   ar
    32    19    10   ar
    33    19    13    1
    34    28    29    1
    35     3     4    1
    36    14    20    1
@<TRIPOS>MOLECULE
*****
 33 36 0 0 0
SMALL
GASTEIGER

@<TRIPOS>ATOM
      1 C          63.4123   88.8519   13.3454 C.2     1  UNL1        0.2320
      2 O          63.1327   88.0963   12.0801 O.2     1  UNL1       -0.2744
      3 N          63.9289   88.1275   14.5529 N.am    1  UNL1       -0.2639
      4 H          64.1125   88.6234   15.3834 H       1  UNL1        0.1567
      5 C          64.1660   86.6475   14.4953 C.ar    1  UNL1        0.1655
      6 N          63.1594   85.6080   14.1000 N.ar    1  UNL1       -0.2239
      7 C          63.8225   84.2652   14.1832 C.ar    1  UNL1        0.0914
      8 C          65.2391   84.4747   14.6299 C.ar    1  UNL1        0.0573
      9 S          65.4513   85.9470   14.8228 S.2     1  UNL1       -0.0508
     10 C          63.1817   82.9447   13.8740 C.ar    1  UNL1        0.0411
     11 C          62.3357   82.1344   14.8108 C.ar    1  UNL1        0.1021
     12 N          61.9056   80.8916   14.0894 N.ar    1  UNL1       -0.2269
     13 C          62.4857   80.9338   12.7068 C.ar    1  UNL1        0.1414
     14 N          62.3977   79.9807   11.5519 N.ar    1  UNL1       -0.3374
     15 C          63.0984   80.2966   10.2638 C.ar    1  UNL1        0.0744
     16 C          63.8872   81.5655   10.1307 C.ar    1  UNL1        0.0300
     17 C          63.9752   82.5186   11.2856 C.ar    1  UNL1        0.0621
     18 CL         64.7639   83.7875   11.1524 Cl      1  UNL1       -0.0821
     19 C          63.2744   82.2027   12.5736 C.ar    1  UNL1        0.0475
     20 H          61.8801   79.1479   11.6393 H       1  UNL1        0.1674
     21 C          63.1752   90.3319   13.4031 C.3     1  UNL1        0.1117
     22 C          66.1461   92.9386   13.0433 C.ar    1  UNL1        0.0641
     23 C          66.1503   93.1607   11.5598 C.ar    1  UNL1        0.0158
     24 C          65.1628   92.4399   10.6907 C.ar    1  UNL1        0.0010
     25 C          64.1711   91.4969   11.3052 C.ar    1  UNL1       -0.0037
     26 C          64.1669   91.2749   12.7887 C.ar    1  UNL1       -0.0118
     27 C          65.1544   91.9958   13.6577 C.ar    1  UNL1        0.0121
     28 N          67.1335   93.6595   13.9123 N.pl3   1  UNL1       -0.2187
     29 H          67.2676   94.6289   13.8055 H       1  UNL1        0.1734
     30 C          68.6999   92.1470   15.9761 C.3     1  UNL1        0.1996
     31 S          67.9168   92.9032   14.9442 S.O2    1  UNL1        0.0558
     32 O          67.0986   93.5373   16.0299 O.2     1  UNL1       -0.1544
     33 O          68.7349   92.2692   13.8586 O.2     1  UNL1       -0.1544
@<TRIPOS>BOND
     1    30    31    1
     2    31    32    2
     3    31    33    2
     4    31    28    1
     5    28    22    1
     6    22    23   ar
     7    23    24   ar
     8    24    25   ar
     9    25    26   ar
    10    26    21    1
    11    21     1    1
    12     1     2    2
    13     1     3   am
    14     3     5    1
    15     5     6   ar
    16     6     7   ar
    17     7    10    1
    18    10    11   ar
    19    11    12   ar
    20    12    13   ar
    21    13    14   ar
    22    14    15   ar
    23    15    16   ar
    24    16    17   ar
    25    17    18    1
    26    17    19   ar
    27     7     8   ar
    28     8     9   ar
    29    26    27   ar
    30    27    22   ar
    31     9     5   ar
    32    19    10   ar
    33    19    13    1
    34    28    29    1
    35     3     4    1
    36    14    20    1
@<TRIPOS>MOLECULE
*****
 33 36 0 0 0
SMALL
GASTEIGER

@<TRIPOS>ATOM
      1 C          62.0094   86.9936   10.6155 C.2     1  UNL1        0.2320
      2 O          62.4284   87.4931    9.2647 O.2     1  UNL1       -0.2744
      3 N          62.0958   87.8976   11.8094 N.am    1  UNL1       -0.2639
      4 H          61.8208   87.5697   12.6960 H       1  UNL1        0.1567
      5 C          62.6012   89.3010   11.6524 C.ar    1  UNL1        0.1655
      6 N          63.8845   89.8435   12.2083 N.ar    1  UNL1       -0.2239
      7 C          63.9885   91.2862   11.8115 C.ar    1  UNL1        0.0914
      8 C          62.7695   91.6356   11.0102 C.ar    1  UNL1        0.0573
      9 S          61.9121   90.4087   10.9119 S.2     1  UNL1       -0.0508
     10 C          65.1139   92.2164   12.1554 C.ar    1  UNL1        0.0411
     11 C          65.8319   93.1228   11.2000 C.ar    1  UNL1        0.1021
     12 N          66.8806   93.8700   11.9693 N.ar    1  UNL1       -0.2269
     13 C          66.8107   93.4254   13.4002 C.ar    1  UNL1        0.1414
     14 N          67.6003   93.8192   14.6133 N.ar    1  UNL1       -0.3374
     15 C          67.2980   93.1908   15.9413 C.ar    1  UNL1        0.0744
     16 C          66.2061   92.1688   16.0564 C.ar    1  UNL1        0.0300
     17 C          65.4165   91.7751   14.8433 C.ar    1  UNL1        0.0621
     18 CL         64.3246   90.7530   14.9583 Cl      1  UNL1       -0.0821
     19 C          65.7188   92.4034   13.5153 C.ar    1  UNL1        0.0475
     20 H          68.3169   94.4900   14.5378 H       1  UNL1        0.1674
     21 C          61.5040   85.5900   10.7725 C.3     1  UNL1        0.1117
     22 C          63.3731   82.4052   12.2264 C.ar    1  UNL1        0.0641
     23 C          64.4151   82.1817   11.1709 C.ar    1  UNL1        0.0158
     24 C          64.4869   83.0943    9.9826 C.ar    1  UNL1        0.0010
     25 C          63.5165   84.2304    9.8498 C.ar    1  UNL1       -0.0037
     26 C          62.4744   84.4539   10.9054 C.ar    1  UNL1       -0.0118
     27 C          62.4027   83.5413   12.0937 C.ar    1  UNL1        0.0121
     28 N          63.3013   81.4926   13.4147 N.pl3   1  UNL1       -0.2187
     29 H          64.1211   81.2626   13.9089 H       1  UNL1        0.1734
     30 C          60.6597   80.3682   14.2852 C.3     1  UNL1        0.1996
     31 S          61.9805   80.9305   13.8500 S.O2    1  UNL1        0.0558
     32 O          62.1980   79.7366   12.9682 O.2     1  UNL1       -0.1544
     33 O          61.7629   82.1243   14.7317 O.2     1  UNL1       -0.1544
@<TRIPOS>BOND
     1    30    31    1
     2    31    32    2
     3    31    33    2
     4    31    28    1
     5    28    22    1
     6    22    23   ar
     7    23    24   ar
     8    24    25   ar
     9    25    26   ar
    10    26    21    1
    11    21     1    1
    12     1     2    2
    13     1     3   am
    14     3     5    1
    15     5     6   ar
    16     6     7   ar
    17     7    10    1
    18    10    11   ar
    19    11    12   ar
    20    12    13   ar
    21    13    14   ar
    22    14    15   ar
    23    15    16   ar
    24    16    17   ar
    25    17    18    1
    26    17    19   ar
    27     7     8   ar
    28     8     9   ar
    29    26    27   ar
    30    27    22   ar
    31     9     5   ar
    32    19    10   ar
    33    19    13    1
    34    28    29    1
    35     3     4    1
    36    14    20    1
@<TRIPOS>MOLECULE
*****
 33 36 0 0 0
SMALL
GASTEIGER

@<TRIPOS>ATOM
      1 C          62.4656   85.6109   10.4943 C.2     1  UNL1        0.2320
      2 O          62.8542   86.4497    9.3131 O.2     1  UNL1       -0.2744
      3 N          62.2692   86.2510   11.8366 N.am    1  UNL1       -0.2639
      4 H          62.0141   85.7005   12.6119 H       1  UNL1        0.1567
      5 C          62.4614   87.7298   11.9976 C.ar    1  UNL1        0.1655
      6 N          63.5943   88.3984   12.7184 N.ar    1  UNL1       -0.2239
      7 C          63.3876   89.8816   12.6324 C.ar    1  UNL1        0.0914
      8 C          62.1268   90.1298   11.8585 C.ar    1  UNL1        0.0573
      9 S          61.5544   88.7999   11.4662 S.2     1  UNL1       -0.0508
     10 C          64.2841   90.9322   13.2176 C.ar    1  UNL1        0.0411
     11 C          64.6873   91.0446   14.6580 C.ar    1  UNL1        0.1021
     12 N          65.5873   92.2368   14.7956 N.ar    1  UNL1       -0.2269
     13 C          65.7403   92.8611   13.4403 C.ar    1  UNL1        0.1414
     14 N          66.5089   94.0595   12.9683 N.ar    1  UNL1       -0.3374
     15 C          66.4722   94.4517   11.5210 C.ar    1  UNL1        0.0744
     16 C          65.6668   93.6454   10.5457 C.ar    1  UNL1        0.0300
     17 C          64.8981   92.4469   11.0177 C.ar    1  UNL1        0.0621
     18 CL         64.0927   91.6407   10.0424 Cl      1  UNL1       -0.0821
     19 C          64.9349   92.0548   12.4650 C.ar    1  UNL1        0.0475
     20 H          67.0375   94.5887   13.6085 H       1  UNL1        0.1674
     21 C          62.2733   84.1320   10.3333 C.3     1  UNL1        0.1117
     22 C          63.0889   82.8082   13.9846 C.ar    1  UNL1        0.0641
     23 C          63.3016   81.3479   13.7158 C.ar    1  UNL1        0.0158
     24 C          63.1715   80.8156   12.3195 C.ar    1  UNL1        0.0010
     25 C          62.8287   81.7437   11.1919 C.ar    1  UNL1       -0.0037
     26 C          62.6161   83.2040   11.4608 C.ar    1  UNL1       -0.0118
     27 C          62.7462   83.7362   12.8572 C.ar    1  UNL1        0.0121
     28 N          63.2190   83.3404   15.3810 N.pl3   1  UNL1       -0.2187
     29 H          63.1075   82.7365   16.1504 H       1  UNL1        0.1734
     30 C          63.8193   86.2455   15.8290 C.3     1  UNL1        0.1996
     31 S          63.5191   84.7929   15.6050 S.O2    1  UNL1        0.0558
     32 O          64.9172   84.5813   15.1043 O.2     1  UNL1       -0.1544
     33 O          62.1211   85.0046   16.1057 O.2     1  UNL1       -0.1544
@<TRIPOS>BOND
     1    30    31    1
     2    31    32    2
     3    31    33    2
     4    31    28    1
     5    28    22    1
     6    22    23   ar
     7    23    24   ar
     8    24    25   ar
     9    25    26   ar
    10    26    21    1
    11    21     1    1
    12     1     2    2
    13     1     3   am
    14     3     5    1
    15     5     6   ar
    16     6     7   ar
    17     7    10    1
    18    10    11   ar
    19    11    12   ar
    20    12    13   ar
    21    13    14   ar
    22    14    15   ar
    23    15    16   ar
    24    16    17   ar
    25    17    18    1
    26    17    19   ar
    27     7     8   ar
    28     8     9   ar
    29    26    27   ar
    30    27    22   ar
    31     9     5   ar
    32    19    10   ar
    33    19    13    1
    34    28    29    1
    35     3     4    1
    36    14    20    1
@<TRIPOS>MOLECULE
*****
 33 36 0 0 0
SMALL
GASTEIGER

@<TRIPOS>ATOM
      1 C          62.8143   84.4851   10.2145 C.2     1  UNL1        0.2320
      2 O          63.4585   85.2550    9.0999 O.2     1  UNL1       -0.2744
      3 N          62.0493   85.2096   11.2821 N.am    1  UNL1       -0.2639
      4 H          61.6265   84.7042   12.0136 H       1  UNL1        0.1567
      5 C          61.9286   86.7039   11.2352 C.ar    1  UNL1        0.1655
      6 N          63.0634   87.6827   11.2996 N.ar    1  UNL1       -0.2239
      7 C          62.4880   89.0656   11.2199 C.ar    1  UNL1        0.0914
      8 C          60.9974   88.9416   11.1063 C.ar    1  UNL1        0.0573
      9 S          60.6517   87.4820   11.1157 S.2     1  UNL1       -0.0508
     10 C          63.2663   90.3475   11.2488 C.ar    1  UNL1        0.0411
     11 C          63.3192   91.3717   10.1541 C.ar    1  UNL1        0.1021
     12 N          64.2141   92.4874   10.6062 N.ar    1  UNL1       -0.2269
     13 C          64.7142   92.1528   11.9803 C.ar    1  UNL1        0.1414
     14 N          65.6272   92.8815   12.9211 N.ar    1  UNL1       -0.3374
     15 C          65.9545   92.2877   14.2590 C.ar    1  UNL1        0.0744
     16 C          65.3688   90.9651   14.6562 C.ar    1  UNL1        0.0300
     17 C          64.4557   90.2364   13.7153 C.ar    1  UNL1        0.0621
     18 CL         63.8700   88.9138   14.1124 Cl      1  UNL1       -0.0821
     19 C          64.1284   90.8302   12.3774 C.ar    1  UNL1        0.0475
     20 H          66.0117   93.7496   12.6604 H       1  UNL1        0.1674
     21 C          62.9351   82.9907   10.2614 C.3     1  UNL1        0.1117
     22 C          62.5516   82.3148   14.1532 C.ar    1  UNL1        0.0641
     23 C          62.4691   80.8172   14.1741 C.ar    1  UNL1        0.0158
     24 C          62.5419   80.0441   12.8908 C.ar    1  UNL1        0.0010
     25 C          62.6972   80.7686   11.5865 C.ar    1  UNL1       -0.0037
     26 C          62.7798   82.2662   11.5656 C.ar    1  UNL1       -0.0118
     27 C          62.7070   83.0393   12.8491 C.ar    1  UNL1        0.0121
     28 N          62.4788   83.0880   15.4366 N.pl3   1  UNL1       -0.2187
     29 H          61.9538   82.7386   16.1926 H       1  UNL1        0.1734
     30 C          63.9330   85.6988   15.6995 C.3     1  UNL1        0.1996
     31 S          63.2060   84.3933   15.5680 S.O2    1  UNL1        0.0558
     32 O          61.8978   85.1030   15.7563 O.2     1  UNL1       -0.1544
     33 O          64.5140   83.6838   15.3797 O.2     1  UNL1       -0.1544
@<TRIPOS>BOND
     1    30    31    1
     2    31    32    2
     3    31    33    2
     4    31    28    1
     5    28    22    1
     6    22    23   ar
     7    23    24   ar
     8    24    25   ar
     9    25    26   ar
    10    26    21    1
    11    21     1    1
    12     1     2    2
    13     1     3   am
    14     3     5    1
    15     5     6   ar
    16     6     7   ar
    17     7    10    1
    18    10    11   ar
    19    11    12   ar
    20    12    13   ar
    21    13    14   ar
    22    14    15   ar
    23    15    16   ar
    24    16    17   ar
    25    17    18    1
    26    17    19   ar
    27     7     8   ar
    28     8     9   ar
    29    26    27   ar
    30    27    22   ar
    31     9     5   ar
    32    19    10   ar
    33    19    13    1
    34    28    29    1
    35     3     4    1
    36    14    20    1
