@<TRIPOS>MOLECULE
*****
 42 45 0 0 0
SMALL
GASTEIGER

@<TRIPOS>ATOM
      1 C          62.1204   89.8355   12.1446 C.3     1  UNL1        0.0487
      2 C          62.4257   90.5470   10.8599 C.3     1  UNL1        0.1816
      3 C          63.4670   91.5146   11.3391 C.3     1  UNL1        0.1129
      4 N          64.4887   92.6125   11.3143 N.3     1  UNL1       -0.2883
      5 C          65.3676   93.7084   10.7886 C.3     1  UNL1        0.1317
      6 C          65.9977   94.6701    9.8252 C.2     1  UNL1        0.2403
      7 O          66.9330   95.3906   10.7507 O.2     1  UNL1       -0.2734
      8 N          66.3030   95.3817    8.5405 N.am    1  UNL1       -0.2701
      9 C          67.3443   96.3493    9.0197 C.3     1  UNL1        0.1153
     10 C          66.2468   95.7573    7.0894 C.3     1  UNL1        0.1519
     11 C          67.2685   96.8552    7.0647 C.3     1  UNL1        0.0314
     12 C          65.8356   95.7515    5.6469 C.2     1  UNL1        0.2409
     13 O          66.7145   96.8475    5.1211 O.2     1  UNL1       -0.2733
     14 N          65.1191   95.3651    4.3870 N.am    1  UNL1       -0.2967
     15 C          64.1839   94.6447    3.4615 C.3     1  UNL1        0.1530
     16 C          63.1426   93.6772    2.9823 C.2     1  UNL1        0.2407
     17 O          63.0863   94.0527    1.5312 O.2     1  UNL1       -0.2733
     18 N          62.1209   92.5792    3.0071 N.am    1  UNL1       -0.3030
     19 C          61.2420   91.4833    3.5328 C.3     1  UNL1        0.0898
     20 C          60.6119   90.5215    4.4962 C.3     1  UNL1        0.0260
     21 C          60.3066   89.8100    5.7809 C.3     1  UNL1        0.0312
     22 C          60.3629   89.4344    7.2320 C.ar    1  UNL1        0.0118
     23 C          59.3216   88.4669    6.7528 C.ar    1  UNL1       -0.0013
     24 C          58.6915   87.5052    7.7161 C.ar    1  UNL1       -0.0001
     25 C          59.1027   87.5110    9.1587 C.ar    1  UNL1        0.0031
     26 C          60.1440   88.4785    9.6379 C.ar    1  UNL1        0.0366
     27 C          60.7740   89.4402    8.6746 C.ar    1  UNL1        0.1344
     28 O          61.4905   89.8266    9.9344 O.3     1  UNL1       -0.4781
     29 H          65.2455   92.0570   11.7132 H       1  UNL1        0.1237
     30 H          65.5327   95.9963    3.7547 H       1  UNL1        0.1499
     31 H          61.8510   92.5755    2.0603 H       1  UNL1        0.1495
     32 C          66.0840   94.0948   12.0485 C.3     1  UNL1        0.0233
     33 C          66.5101   95.1456   13.0305 C.3     1  UNL1        0.0019
     34 C          66.8988   93.7134   13.2489 C.3     1  UNL1        0.0019
     35 C          64.4892   95.3562    2.1768 C.3     1  UNL1        0.0553
     36 C          63.3758   95.7309    1.2441 C.ar    1  UNL1       -0.0199
     37 C          62.1667   96.4471    1.7688 C.ar    1  UNL1       -0.0019
     38 C          61.0533   96.8218    0.8361 C.ar    1  UNL1        0.0293
     39 C          61.1490   96.4803   -0.6214 C.ar    1  UNL1        0.1401
     40 F          60.0356   96.8550   -1.5541 F       1  UNL1       -0.2042
     41 C          62.3580   95.7642   -1.1461 C.ar    1  UNL1        0.0293
     42 C          63.4714   95.3895   -0.2134 C.ar    1  UNL1       -0.0019
@<TRIPOS>BOND
     1     2     1    1
     2     2     3    1
     3     3     4    1
     4     4     5    1
     5     5    32    1
     6    32    33    1
     7    33    34    1
     8     5     6    1
     9     6     7    2
    10     6     8   am
    11     8     9    1
    12     8    10    1
    13    10    11    1
    14    10    12    1
    15    12    13    2
    16    12    14   am
    17    14    15    1
    18    15    35    1
    19    35    36    1
    20    36    37   ar
    21    37    38   ar
    22    38    39   ar
    23    39    40    1
    24    39    41   ar
    25    41    42   ar
    26    15    16    1
    27    16    17    2
    28    16    18   am
    29    18    19    1
    30    19    20    1
    31    20    21    1
    32    21    22    1
    33    22    23   ar
    34    23    24   ar
    35    24    25   ar
    36    25    26   ar
    37    26    27   ar
    38    27    28    1
    39    28     2    1
    40    34    32    1
    41    42    36   ar
    42    27    22   ar
    43     4    29    1
    44    14    30    1
    45    18    31    1
