@<TRIPOS>MOLECULE
*****
 33 35 0 0 0
SMALL
GASTEIGER

@<TRIPOS>ATOM
      1 C          63.8440   90.5009   12.6784 C.ar    1  UNL1        0.1390
      2 C          64.3054   91.8270   12.1506 C.ar    1  UNL1        0.0437
      3 C          65.4780   92.5182   12.7809 C.ar    1  UNL1        0.0852
      4 C          66.1893   91.8833   13.9389 C.ar    1  UNL1        0.1447
      5 F          67.3619   92.5745   14.5691 F       1  UNL1       -0.2040
      6 C          65.7279   90.5572   14.4667 C.ar    1  UNL1        0.0328
      7 C          64.5553   89.8660   13.8364 C.ar    1  UNL1        0.0378
      8 C          64.0939   88.5399   14.3643 C.ar    1  UNL1        0.0232
      9 C          63.9570   87.3697   13.4359 C.ar    1  UNL1        0.1022
     10 N          63.4956   86.0436   13.9637 N.ar    1  UNL1       -0.2091
     11 C          63.1711   85.8877   15.4199 C.ar    1  UNL1        0.2404
     12 C          63.3080   87.0579   16.3483 C.ar    1  UNL1        0.1111
     13 CL         62.9836   86.9020   17.8044 Cl      1  UNL1       -0.0774
     14 C          63.7694   88.3840   15.8204 C.ar    1  UNL1        0.0178
     15 O          62.7098   84.5616   15.9477 O.3     1  UNL1       -0.4330
     16 C          62.8048   83.3373   15.0862 C.ar    1  UNL1        0.1767
     17 C          61.5973   82.4726   14.8761 C.ar    1  UNL1        0.0695
     18 C          61.6922   81.2484   14.0146 C.ar    1  UNL1        0.1433
     19 F          60.4847   80.3836   13.8044 F       1  UNL1       -0.2041
     20 C          62.9947   80.8888   13.3633 C.ar    1  UNL1        0.0322
     21 C          64.2022   81.7535   13.5735 C.ar    1  UNL1        0.0351
     22 C          64.1072   82.9777   14.4350 C.ar    1  UNL1        0.1746
     23 F          65.3148   83.8424   14.6451 F       1  UNL1       -0.2009
     24 C          65.9394   93.8443   12.2530 C.2     1  UNL1        0.2663
     25 O          66.3475   94.9295   13.2047 O.2     1  UNL1       -0.2685
     26 N          65.9927   94.0852   10.7734 N.am    1  UNL1       -0.1851
     27 H          65.7249   93.3729   10.1488 H       1  UNL1        0.1765
     28 S          66.4541   95.4112   10.2455 S.O2    1  UNL1        0.0581
     29 C          66.9155   96.7373    9.7176 C.3     1  UNL1        0.1997
     30 O          67.8371   94.8587   10.0664 O.2     1  UNL1       -0.1543
     31 O          65.0711   95.9637   10.4247 O.2     1  UNL1       -0.1543
     32 C          62.5979   89.6665   10.5569 C.3     1  UNL1        0.2525
     33 O          62.6714   89.8097   12.0482 O.3     1  UNL1       -0.4714
@<TRIPOS>BOND
     1    32    33    1
     2    33     1    1
     3     1     2   ar
     4     2     3   ar
     5     3    24    1
     6    24    25    2
     7    24    26   am
     8    26    28    1
     9    28    29    1
    10    28    30    2
    11    28    31    2
    12     3     4   ar
    13     4     5    1
    14     4     6   ar
    15     6     7   ar
    16     7     8    1
    17     8     9   ar
    18     9    10   ar
    19    10    11   ar
    20    11    15    1
    21    15    16    1
    22    16    17   ar
    23    17    18   ar
    24    18    19    1
    25    18    20   ar
    26    20    21   ar
    27    21    22   ar
    28    22    23    1
    29    11    12   ar
    30    12    13    1
    31    12    14   ar
    32     7     1   ar
    33    14     8   ar
    34    22    16   ar
    35    26    27    1
@<TRIPOS>MOLECULE
*****
 33 35 0 0 0
SMALL
GASTEIGER

@<TRIPOS>ATOM
      1 C          63.1829   87.3330   12.4765 C.ar    1  UNL1        0.1390
      2 C          62.8018   85.8975   12.6867 C.ar    1  UNL1        0.0437
      3 C          63.1971   85.1940   13.9511 C.ar    1  UNL1        0.0852
      4 C          63.9735   85.9258   15.0053 C.ar    1  UNL1        0.1447
      5 F          64.3688   85.2223   16.2697 F       1  UNL1       -0.2040
      6 C          64.3546   87.3613   14.7952 C.ar    1  UNL1        0.0328
      7 C          63.9593   88.0648   13.5308 C.ar    1  UNL1        0.0378
      8 C          64.3405   89.5004   13.3207 C.ar    1  UNL1        0.0232
      9 C          63.6799   90.3009   12.2378 C.ar    1  UNL1        0.1022
     10 N          64.0610   91.7364   12.0276 N.ar    1  UNL1       -0.2091
     11 C          65.1027   92.3713   12.9004 C.ar    1  UNL1        0.2404
     12 C          65.7633   91.5707   13.9833 C.ar    1  UNL1        0.1111
     13 CL         66.8050   92.2056   14.8560 Cl      1  UNL1       -0.0774
     14 C          65.3822   90.1352   14.1934 C.ar    1  UNL1        0.0178
     15 O          65.4838   93.8068   12.6903 O.3     1  UNL1       -0.4330
     16 C          66.2455   94.2085   11.4620 C.ar    1  UNL1        0.1767
     17 C          66.9142   93.1635   10.6190 C.ar    1  UNL1        0.0695
     18 C          67.6758   93.5652    9.3907 C.ar    1  UNL1        0.1433
     19 F          68.3446   92.5202    8.5477 F       1  UNL1       -0.2041
     20 C          67.7687   95.0119    9.0056 C.ar    1  UNL1        0.0322
     21 C          67.1000   96.0569    9.8486 C.ar    1  UNL1        0.0351
     22 C          66.3384   95.6552   11.0768 C.ar    1  UNL1        0.1746
     23 F          65.6696   96.7002   11.9199 F       1  UNL1       -0.2009
     24 C          62.8159   83.7584   14.1612 C.2     1  UNL1        0.2663
     25 O          61.9672   83.3720   15.3360 O.2     1  UNL1       -0.2685
     26 N          63.2835   82.7094   13.1964 N.am    1  UNL1       -0.1851
     27 H          63.8406   82.9630   12.4253 H       1  UNL1        0.1765
     28 S          62.9024   81.2739   13.4065 S.O2    1  UNL1        0.0581
     29 C          62.5213   79.8384   13.6166 C.3     1  UNL1        0.1997
     30 O          64.1196   81.0757   14.2603 O.2     1  UNL1       -0.1543
     31 O          61.6852   81.4721   12.5526 O.2     1  UNL1       -0.1543
     32 C          61.9804   87.3156   10.1736 C.3     1  UNL1        0.2525
     33 O          62.7876   88.0365   11.2121 O.3     1  UNL1       -0.4714
@<TRIPOS>BOND
     1    32    33    1
     2    33     1    1
     3     1     2   ar
     4     2     3   ar
     5     3    24    1
     6    24    25    2
     7    24    26   am
     8    26    28    1
     9    28    29    1
    10    28    30    2
    11    28    31    2
    12     3     4   ar
    13     4     5    1
    14     4     6   ar
    15     6     7   ar
    16     7     8    1
    17     8     9   ar
    18     9    10   ar
    19    10    11   ar
    20    11    15    1
    21    15    16    1
    22    16    17   ar
    23    17    18   ar
    24    18    19    1
    25    18    20   ar
    26    20    21   ar
    27    21    22   ar
    28    22    23    1
    29    11    12   ar
    30    12    13    1
    31    12    14   ar
    32     7     1   ar
    33    14     8   ar
    34    22    16   ar
    35    26    27    1
@<TRIPOS>MOLECULE
*****
 33 35 0 0 0
SMALL
GASTEIGER

@<TRIPOS>ATOM
      1 C          63.8253   90.1716   12.2301 C.ar    1  UNL1        0.1390
      2 C          64.3052   91.5648   11.9495 C.ar    1  UNL1        0.0437
      3 C          65.3539   92.1870   12.8229 C.ar    1  UNL1        0.0852
      4 C          65.9228   91.4161   13.9770 C.ar    1  UNL1        0.1447
      5 F          66.9716   92.0384   14.8505 F       1  UNL1       -0.2040
      6 C          65.4430   90.0229   14.2577 C.ar    1  UNL1        0.0328
      7 C          64.3943   89.4007   13.3842 C.ar    1  UNL1        0.0378
      8 C          63.9144   88.0074   13.6649 C.ar    1  UNL1        0.0232
      9 C          63.2275   87.2198   12.5889 C.ar    1  UNL1        0.1022
     10 N          62.7477   85.8266   12.8696 N.ar    1  UNL1       -0.2091
     11 C          62.9548   85.2210   14.2262 C.ar    1  UNL1        0.2404
     12 C          63.6417   86.0087   15.3022 C.ar    1  UNL1        0.1111
     13 CL         63.8488   85.4032   16.6588 Cl      1  UNL1       -0.0774
     14 C          64.1215   87.4019   15.0215 C.ar    1  UNL1        0.0178
     15 O          62.4750   83.8279   14.5069 O.3     1  UNL1       -0.4330
     16 C          62.6985   82.7402   13.4984 C.ar    1  UNL1        0.1767
     17 C          63.5351   83.0057   12.2820 C.ar    1  UNL1        0.0695
     18 C          63.7586   81.9180   11.2735 C.ar    1  UNL1        0.1433
     19 F          64.5952   82.1835   10.0571 F       1  UNL1       -0.2041
     20 C          63.1456   80.5649   11.4814 C.ar    1  UNL1        0.0322
     21 C          62.3090   80.2995   12.6978 C.ar    1  UNL1        0.0351
     22 C          62.0855   81.3871   13.7063 C.ar    1  UNL1        0.1746
     23 F          61.2489   81.1216   14.9227 F       1  UNL1       -0.2009
     24 C          65.8337   93.5803   12.5422 C.2     1  UNL1        0.2663
     25 O          66.2154   94.4848   13.6763 O.2     1  UNL1       -0.2685
     26 N          65.9319   94.0689   11.1274 N.am    1  UNL1       -0.1851
     27 H          65.6814   93.4752   10.3831 H       1  UNL1        0.1765
     28 S          66.4117   95.4620   10.8467 S.O2    1  UNL1        0.0581
     29 C          66.8915   96.8553   10.5660 C.3     1  UNL1        0.1997
     30 O          65.1413   96.0153   11.4212 O.2     1  UNL1       -0.1543
     31 O          67.6820   94.9088   10.2722 O.2     1  UNL1       -0.1543
     32 C          62.1688   90.3392   10.2357 C.3     1  UNL1        0.2525
     33 O          62.7766   89.5493   11.3567 O.3     1  UNL1       -0.4714
@<TRIPOS>BOND
     1    32    33    1
     2    33     1    1
     3     1     2   ar
     4     2     3   ar
     5     3    24    1
     6    24    25    2
     7    24    26   am
     8    26    28    1
     9    28    29    1
    10    28    30    2
    11    28    31    2
    12     3     4   ar
    13     4     5    1
    14     4     6   ar
    15     6     7   ar
    16     7     8    1
    17     8     9   ar
    18     9    10   ar
    19    10    11   ar
    20    11    15    1
    21    15    16    1
    22    16    17   ar
    23    17    18   ar
    24    18    19    1
    25    18    20   ar
    26    20    21   ar
    27    21    22   ar
    28    22    23    1
    29    11    12   ar
    30    12    13    1
    31    12    14   ar
    32     7     1   ar
    33    14     8   ar
    34    22    16   ar
    35    26    27    1
@<TRIPOS>MOLECULE
*****
 33 35 0 0 0
SMALL
GASTEIGER

@<TRIPOS>ATOM
      1 C          63.7921   87.2173   15.1026 C.ar    1  UNL1        0.1390
      2 C          63.4444   85.7862   15.3869 C.ar    1  UNL1        0.0437
      3 C          63.1231   84.8537   14.2568 C.ar    1  UNL1        0.0852
      4 C          63.1494   85.3523   12.8424 C.ar    1  UNL1        0.1447
      5 F          62.8280   84.4198   11.7122 F       1  UNL1       -0.2040
      6 C          63.4971   86.7835   12.5581 C.ar    1  UNL1        0.0328
      7 C          63.8184   87.7160   13.6882 C.ar    1  UNL1        0.0378
      8 C          64.1661   89.1472   13.4038 C.ar    1  UNL1        0.0232
      9 C          63.4955   89.8718   12.2745 C.ar    1  UNL1        0.1022
     10 N          63.8431   91.3029   11.9902 N.ar    1  UNL1       -0.2091
     11 C          64.8614   92.0096   12.8351 C.ar    1  UNL1        0.2404
     12 C          65.5320   91.2850   13.9644 C.ar    1  UNL1        0.1111
     13 CL         66.5502   91.9916   14.8093 Cl      1  UNL1       -0.0774
     14 C          65.1843   89.8538   14.2488 C.ar    1  UNL1        0.0178
     15 O          65.2090   93.4407   12.5507 O.3     1  UNL1       -0.4330
     16 C          66.1260   93.7779   11.4126 C.ar    1  UNL1        0.1767
     17 C          66.8584   92.6860   10.6907 C.ar    1  UNL1        0.0695
     18 C          67.7754   93.0231    9.5526 C.ar    1  UNL1        0.1433
     19 F          68.5079   91.9311    8.8307 F       1  UNL1       -0.2041
     20 C          67.9600   94.4523    9.1362 C.ar    1  UNL1        0.0322
     21 C          67.2275   95.5443    9.8580 C.ar    1  UNL1        0.0351
     22 C          66.3105   95.2071   10.9962 C.ar    1  UNL1        0.1746
     23 F          65.5780   96.2992   11.7180 F       1  UNL1       -0.2009
     24 C          62.7754   83.4224   14.5411 C.2     1  UNL1        0.2663
     25 O          62.3810   83.0076   15.9276 O.2     1  UNL1       -0.2685
     26 N          62.8222   82.4060   13.4390 N.am    1  UNL1       -0.1851
     27 H          63.0811   82.6783   12.5290 H       1  UNL1        0.1765
     28 S          62.4746   80.9749   13.7232 S.O2    1  UNL1        0.0581
     29 C          62.1268   79.5437   14.0075 C.3     1  UNL1        0.1997
     30 O          61.0210   81.2890   13.5271 O.2     1  UNL1       -0.1543
     31 O          63.9281   80.6608   13.9193 O.2     1  UNL1       -0.1543
     32 C          63.0192   88.6433   17.1322 C.3     1  UNL1        0.2525
     33 O          64.1135   88.1498   16.2327 O.3     1  UNL1       -0.4714
@<TRIPOS>BOND
     1    32    33    1
     2    33     1    1
     3     1     2   ar
     4     2     3   ar
     5     3    24    1
     6    24    25    2
     7    24    26   am
     8    26    28    1
     9    28    29    1
    10    28    30    2
    11    28    31    2
    12     3     4   ar
    13     4     5    1
    14     4     6   ar
    15     6     7   ar
    16     7     8    1
    17     8     9   ar
    18     9    10   ar
    19    10    11   ar
    20    11    15    1
    21    15    16    1
    22    16    17   ar
    23    17    18   ar
    24    18    19    1
    25    18    20   ar
    26    20    21   ar
    27    21    22   ar
    28    22    23    1
    29    11    12   ar
    30    12    13    1
    31    12    14   ar
    32     7     1   ar
    33    14     8   ar
    34    22    16   ar
    35    26    27    1
@<TRIPOS>MOLECULE
*****
 33 35 0 0 0
SMALL
GASTEIGER

@<TRIPOS>ATOM
      1 C          63.7279   87.0210   14.7683 C.ar    1  UNL1        0.1390
      2 C          63.4369   85.5822   15.0768 C.ar    1  UNL1        0.0437
      3 C          63.0472   84.6427   13.9743 C.ar    1  UNL1        0.0852
      4 C          62.9486   85.1420   12.5633 C.ar    1  UNL1        0.1447
      5 F          62.5589   84.2024   11.4609 F       1  UNL1       -0.2040
      6 C          63.2396   86.5807   12.2548 C.ar    1  UNL1        0.0328
      7 C          63.6292   87.5202   13.3573 C.ar    1  UNL1        0.0378
      8 C          63.9202   88.9591   13.0487 C.ar    1  UNL1        0.0232
      9 C          64.7513   89.7755   13.9936 C.ar    1  UNL1        0.1022
     10 N          65.0423   91.2143   13.6850 N.ar    1  UNL1       -0.2091
     11 C          64.5022   91.8367   12.4316 C.ar    1  UNL1        0.2404
     12 C          63.6711   91.0203   11.4868 C.ar    1  UNL1        0.1111
     13 CL         63.1310   91.6426   10.2335 Cl      1  UNL1       -0.0774
     14 C          63.3801   89.5814   11.7954 C.ar    1  UNL1        0.0178
     15 O          64.7932   93.2754   12.1231 O.3     1  UNL1       -0.4330
     16 C          65.8759   93.6291   11.1470 C.ar    1  UNL1        0.1767
     17 C          66.7022   92.5463   10.5187 C.ar    1  UNL1        0.0695
     18 C          67.7849   92.8999    9.5426 C.ar    1  UNL1        0.1433
     19 F          68.6112   91.8171    8.9143 F       1  UNL1       -0.2041
     20 C          68.0412   94.3363    9.1947 C.ar    1  UNL1        0.0322
     21 C          67.2148   95.4191    9.8230 C.ar    1  UNL1        0.0351
     22 C          66.1322   95.0654   10.7991 C.ar    1  UNL1        0.1746
     23 F          65.3058   96.1483   11.4274 F       1  UNL1       -0.2009
     24 C          62.7562   83.2039   14.2829 C.2     1  UNL1        0.2663
     25 O          62.9378   82.6845   15.6783 O.2     1  UNL1       -0.2685
     26 N          62.2836   82.2845   13.1960 N.am    1  UNL1       -0.1851
     27 H          62.1644   82.6254   12.2802 H       1  UNL1        0.1765
     28 S          61.9926   80.8457   13.5046 S.O2    1  UNL1        0.0581
     29 C          61.7016   79.4069   13.8131 C.3     1  UNL1        0.1997
     30 O          63.2767   80.4438   12.8415 O.2     1  UNL1       -0.1543
     31 O          60.7086   81.2476   14.1676 O.2     1  UNL1       -0.1543
     32 C          63.1213   88.3277   16.9304 C.3     1  UNL1        0.2525
     33 O          64.1175   87.9605   15.8708 O.3     1  UNL1       -0.4714
@<TRIPOS>BOND
     1    32    33    1
     2    33     1    1
     3     1     2   ar
     4     2     3   ar
     5     3    24    1
     6    24    25    2
     7    24    26   am
     8    26    28    1
     9    28    29    1
    10    28    30    2
    11    28    31    2
    12     3     4   ar
    13     4     5    1
    14     4     6   ar
    15     6     7   ar
    16     7     8    1
    17     8     9   ar
    18     9    10   ar
    19    10    11   ar
    20    11    15    1
    21    15    16    1
    22    16    17   ar
    23    17    18   ar
    24    18    19    1
    25    18    20   ar
    26    20    21   ar
    27    21    22   ar
    28    22    23    1
    29    11    12   ar
    30    12    13    1
    31    12    14   ar
    32     7     1   ar
    33    14     8   ar
    34    22    16   ar
    35    26    27    1
@<TRIPOS>MOLECULE
*****
 33 35 0 0 0
SMALL
GASTEIGER

@<TRIPOS>ATOM
      1 C          62.7343   85.3927   11.8151 C.ar    1  UNL1        0.1390
      2 C          62.4416   83.9462   11.5468 C.ar    1  UNL1        0.0437
      3 C          62.7885   82.9081   12.5724 C.ar    1  UNL1        0.0852
      4 C          63.4282   83.3164   13.8663 C.ar    1  UNL1        0.1447
      5 F          63.7751   82.2782   14.8919 F       1  UNL1       -0.2040
      6 C          63.7209   84.7628   14.1345 C.ar    1  UNL1        0.0328
      7 C          63.3739   85.8010   13.1089 C.ar    1  UNL1        0.0378
      8 C          63.6666   87.2475   13.3772 C.ar    1  UNL1        0.0232
      9 C          64.3783   87.6478   14.6355 C.ar    1  UNL1        0.1022
     10 N          64.6710   89.0943   14.9039 N.ar    1  UNL1       -0.2091
     11 C          64.2521   90.1405   13.9139 C.ar    1  UNL1        0.2404
     12 C          63.5405   89.7402   12.6556 C.ar    1  UNL1        0.1111
     13 CL         63.1216   90.7864   11.6656 Cl      1  UNL1       -0.0774
     14 C          63.2477   88.2937   12.3873 C.ar    1  UNL1        0.0178
     15 O          64.5449   91.5870   14.1822 O.3     1  UNL1       -0.4330
     16 C          65.9303   92.0127   14.5687 C.ar    1  UNL1        0.1767
     17 C          67.0743   91.7890   13.6247 C.ar    1  UNL1        0.0695
     18 C          68.4598   92.2147   14.0111 C.ar    1  UNL1        0.1433
     19 F          69.6038   91.9909   13.0670 F       1  UNL1       -0.2041
     20 C          68.7012   92.8640   15.3415 C.ar    1  UNL1        0.0322
     21 C          67.5572   93.0877   16.2854 C.ar    1  UNL1        0.0351
     22 C          66.1717   92.6620   15.8990 C.ar    1  UNL1        0.1746
     23 F          65.0277   92.8858   16.8431 F       1  UNL1       -0.2009
     24 C          62.4958   81.4615   12.3041 C.2     1  UNL1        0.2663
     25 O          61.6110   80.6897   13.2375 O.2     1  UNL1       -0.2685
     26 N          63.0879   80.7869   11.1023 N.am    1  UNL1       -0.1851
     27 H          63.6686   81.2935   10.4897 H       1  UNL1        0.1765
     28 S          62.7952   79.3404   10.8340 S.O2    1  UNL1        0.0581
     29 C          62.5025   77.8939   10.5657 C.3     1  UNL1        0.1997
     30 O          62.7370   79.0784   12.3097 O.2     1  UNL1       -0.1543
     31 O          62.8534   79.6025    9.3582 O.2     1  UNL1       -0.1543
     32 C          61.0865   86.3467   10.0474 C.3     1  UNL1        0.2525
     33 O          62.3873   86.4309   10.7895 O.3     1  UNL1       -0.4714
@<TRIPOS>BOND
     1    32    33    1
     2    33     1    1
     3     1     2   ar
     4     2     3   ar
     5     3    24    1
     6    24    25    2
     7    24    26   am
     8    26    28    1
     9    28    29    1
    10    28    30    2
    11    28    31    2
    12     3     4   ar
    13     4     5    1
    14     4     6   ar
    15     6     7   ar
    16     7     8    1
    17     8     9   ar
    18     9    10   ar
    19    10    11   ar
    20    11    15    1
    21    15    16    1
    22    16    17   ar
    23    17    18   ar
    24    18    19    1
    25    18    20   ar
    26    20    21   ar
    27    21    22   ar
    28    22    23    1
    29    11    12   ar
    30    12    13    1
    31    12    14   ar
    32     7     1   ar
    33    14     8   ar
    34    22    16   ar
    35    26    27    1
@<TRIPOS>MOLECULE
*****
 33 35 0 0 0
SMALL
GASTEIGER

@<TRIPOS>ATOM
      1 C          63.2879   84.8234   14.2907 C.ar    1  UNL1        0.1390
      2 C          62.9901   83.3782   14.0212 C.ar    1  UNL1        0.0437
      3 C          62.7755   82.9065   12.6136 C.ar    1  UNL1        0.0852
      4 C          62.8586   83.8800   11.4754 C.ar    1  UNL1        0.1447
      5 F          62.6440   83.4082   10.0678 F       1  UNL1       -0.2040
      6 C          63.1564   85.3252   11.7449 C.ar    1  UNL1        0.0328
      7 C          63.3710   85.7969   13.1526 C.ar    1  UNL1        0.0378
      8 C          63.6688   87.2422   13.4220 C.ar    1  UNL1        0.0232
      9 C          64.4077   87.6363   14.6665 C.ar    1  UNL1        0.1022
     10 N          64.7055   89.0815   14.9360 N.ar    1  UNL1       -0.2091
     11 C          64.2644   90.1326   13.9610 C.ar    1  UNL1        0.2404
     12 C          63.5256   89.7385   12.7165 C.ar    1  UNL1        0.1111
     13 CL         63.0845   90.7896   11.7415 Cl      1  UNL1       -0.0774
     14 C          63.2278   88.2932   12.4470 C.ar    1  UNL1        0.0178
     15 O          64.5622   91.5778   14.2305 O.3     1  UNL1       -0.4330
     16 C          65.9507   91.9993   14.6108 C.ar    1  UNL1        0.1767
     17 C          67.0883   91.7804   13.6580 C.ar    1  UNL1        0.0695
     18 C          68.4768   92.2018   14.0382 C.ar    1  UNL1        0.1433
     19 F          69.6144   91.9829   13.0853 F       1  UNL1       -0.2041
     20 C          68.7276   92.8421   15.3713 C.ar    1  UNL1        0.0322
     21 C          67.5900   93.0610   16.3241 C.ar    1  UNL1        0.0351
     22 C          66.2015   92.6395   15.9438 C.ar    1  UNL1        0.1746
     23 F          65.0639   92.8584   16.8967 F       1  UNL1       -0.2009
     24 C          62.4777   81.4612   12.3441 C.2     1  UNL1        0.2663
     25 O          61.5678   80.6992   13.2614 O.2     1  UNL1       -0.2685
     26 N          63.0898   80.7780   11.1573 N.am    1  UNL1       -0.1851
     27 H          63.6869   81.2781   10.5552 H       1  UNL1        0.1765
     28 S          62.7920   79.3328   10.8878 S.O2    1  UNL1        0.0581
     29 C          62.4942   77.8875   10.6182 C.3     1  UNL1        0.1997
     30 O          62.8366   79.5987    9.4123 O.2     1  UNL1       -0.1543
     31 O          62.7474   79.0668   12.3633 O.2     1  UNL1       -0.1543
     32 C          62.3474   85.3555   16.6534 C.3     1  UNL1        0.2525
     33 O          63.5025   85.2951   15.6983 O.3     1  UNL1       -0.4714
@<TRIPOS>BOND
     1    32    33    1
     2    33     1    1
     3     1     2   ar
     4     2     3   ar
     5     3    24    1
     6    24    25    2
     7    24    26   am
     8    26    28    1
     9    28    29    1
    10    28    30    2
    11    28    31    2
    12     3     4   ar
    13     4     5    1
    14     4     6   ar
    15     6     7   ar
    16     7     8    1
    17     8     9   ar
    18     9    10   ar
    19    10    11   ar
    20    11    15    1
    21    15    16    1
    22    16    17   ar
    23    17    18   ar
    24    18    19    1
    25    18    20   ar
    26    20    21   ar
    27    21    22   ar
    28    22    23    1
    29    11    12   ar
    30    12    13    1
    31    12    14   ar
    32     7     1   ar
    33    14     8   ar
    34    22    16   ar
    35    26    27    1
@<TRIPOS>MOLECULE
*****
 33 35 0 0 0
SMALL
GASTEIGER

@<TRIPOS>ATOM
      1 C          62.3155   92.9825    2.3729 C.ar    1  UNL1        0.1390
      2 C          62.9081   93.8026    1.2656 C.ar    1  UNL1        0.0437
      3 C          62.0119   94.5565    0.3284 C.ar    1  UNL1        0.0852
      4 C          60.5231   94.4904    0.4985 C.ar    1  UNL1        0.1447
      5 F          59.6268   95.2443   -0.4387 F       1  UNL1       -0.2040
      6 C          59.9305   93.6703    1.6059 C.ar    1  UNL1        0.0328
      7 C          60.8267   92.9164    2.5431 C.ar    1  UNL1        0.0378
      8 C          60.2341   92.0963    3.6505 C.ar    1  UNL1        0.0232
      9 C          61.1272   91.2969    4.5524 C.ar    1  UNL1        0.1022
     10 N          60.5346   90.4768    5.6597 N.ar    1  UNL1       -0.2091
     11 C          59.0488   90.4561    5.8653 C.ar    1  UNL1        0.2404
     12 C          58.1557   91.2555    4.9634 C.ar    1  UNL1        0.1111
     13 CL         56.6701   91.2348    5.1689 Cl      1  UNL1       -0.0774
     14 C          58.7484   92.0756    3.8560 C.ar    1  UNL1        0.0178
     15 O          58.4563   89.6360    6.9726 O.3     1  UNL1       -0.4330
     16 C          59.2800   88.5791    7.6466 C.ar    1  UNL1        0.1767
     17 C          59.3673   87.2042    7.0532 C.ar    1  UNL1        0.0695
     18 C          60.1910   86.1473    7.7272 C.ar    1  UNL1        0.1433
     19 F          60.2782   84.7724    7.1336 F       1  UNL1       -0.2041
     20 C          60.9275   86.4651    8.9946 C.ar    1  UNL1        0.0322
     21 C          60.8403   87.8400    9.5880 C.ar    1  UNL1        0.0351
     22 C          60.0165   88.8969    8.9141 C.ar    1  UNL1        0.1746
     23 F          59.9293   90.2718    9.5076 F       1  UNL1       -0.2009
     24 C          62.6045   95.3766   -0.7790 C.2     1  UNL1        0.2663
     25 O          62.0960   96.7634   -1.0401 O.2     1  UNL1       -0.2685
     26 N          63.7057   94.8098   -1.6254 N.am    1  UNL1       -0.1851
     27 H          64.0394   93.8996   -1.4540 H       1  UNL1        0.1765
     28 S          64.2983   95.6299   -2.7327 S.O2    1  UNL1        0.0581
     29 C          64.8911   96.4499   -3.8401 C.3     1  UNL1        0.1997
     30 O          65.3084   96.1912   -1.7764 O.2     1  UNL1       -0.1543
     31 O          63.2882   95.0685   -3.6890 O.2     1  UNL1       -0.1543
     32 C          63.7431   90.8816    2.9189 C.3     1  UNL1        0.2525
     33 O          63.2118   92.2286    3.3102 O.3     1  UNL1       -0.4714
@<TRIPOS>BOND
     1    32    33    1
     2    33     1    1
     3     1     2   ar
     4     2     3   ar
     5     3    24    1
     6    24    25    2
     7    24    26   am
     8    26    28    1
     9    28    29    1
    10    28    30    2
    11    28    31    2
    12     3     4   ar
    13     4     5    1
    14     4     6   ar
    15     6     7   ar
    16     7     8    1
    17     8     9   ar
    18     9    10   ar
    19    10    11   ar
    20    11    15    1
    21    15    16    1
    22    16    17   ar
    23    17    18   ar
    24    18    19    1
    25    18    20   ar
    26    20    21   ar
    27    21    22   ar
    28    22    23    1
    29    11    12   ar
    30    12    13    1
    31    12    14   ar
    32     7     1   ar
    33    14     8   ar
    34    22    16   ar
    35    26    27    1
