@<TRIPOS>MOLECULE
*****
 34 37 0 0 0
SMALL
GASTEIGER

@<TRIPOS>ATOM
      1 C          63.8305   90.2877   14.6449 C.3     1  UNL1        0.1379
      2 C          63.6481   84.6558   16.7063 C.3     1  UNL1        0.0310
      3 C          63.6937   86.0638   16.1909 C.ar    1  UNL1       -0.0219
      4 C          64.4440   86.3772   14.9305 C.ar    1  UNL1       -0.0045
      5 C          64.4896   87.7851   14.4151 C.ar    1  UNL1       -0.0029
      6 C          63.7849   88.8797   15.1603 C.ar    1  UNL1       -0.0007
      7 C          63.0346   88.5664   16.4208 C.ar    1  UNL1       -0.0029
      8 C          62.9890   87.1584   16.9361 C.ar    1  UNL1       -0.0045
      9 C          64.3363   91.3923   15.5246 C.ar    1  UNL1        0.1791
     10 N          63.6943   91.8746   16.7916 N.ar    1  UNL1       -0.1110
     11 N          64.5342   92.9889   17.3418 N.ar    1  UNL1       -0.0229
     12 N          65.6953   93.1954   16.4148 N.ar    1  UNL1       -0.0432
     13 N          65.5730   92.2087   15.2918 N.ar    1  UNL1       -0.2192
     14 C          66.5209   92.0637   14.1383 C.3     1  UNL1        0.0896
     15 C          67.4498   91.2632   15.0022 C.3     1  UNL1        0.0245
     16 C          65.9767   92.6645   13.2333 C.3     1  UNL1        0.0245
     17 C          67.4688   91.9188   12.9849 C.3     1  UNL1        0.0245
     18 N          63.3702   90.5910   13.2498 N.3     1  UNL1       -0.2876
     19 H          64.1612   90.4078   12.6324 H       1  UNL1        0.1239
     20 C          62.1930   89.8618   12.6733 C.3     1  UNL1        0.0905
     21 C          62.3872   88.9076   11.5324 C.3     1  UNL1        0.1044
     22 N          61.7391   87.5553   11.5670 N.pl3   1  UNL1       -0.3315
     23 H          60.9701   87.3930   12.1599 H       1  UNL1        0.1469
     24 C          62.2627   86.4502   10.6982 C.ar    1  UNL1        0.0477
     25 C          62.4338   86.6717    9.2246 C.ar    1  UNL1        0.0350
     26 C          62.9573   85.5666    8.3559 C.ar    1  UNL1        0.1001
     27 N          63.3098   84.2400    8.9608 N.ar    1  UNL1       -0.2437
     28 C          63.1387   84.0185   10.4344 C.ar    1  UNL1        0.0833
     29 C          63.4912   82.6919   11.0394 C.ar    1  UNL1        0.0305
     30 C          63.3201   82.4704   12.5130 C.ar    1  UNL1        0.0592
     31 CL         63.6725   81.1438   13.1179 Cl      1  UNL1       -0.0822
     32 C          62.7965   83.5755   13.3818 C.ar    1  UNL1        0.0115
     33 C          62.4440   84.9021   12.7768 C.ar    1  UNL1        0.0036
     34 C          62.6151   85.1236   11.3031 C.ar    1  UNL1        0.0309
@<TRIPOS>BOND
     1     2     3    1
     2     3     4   ar
     3     4     5   ar
     4     5     6   ar
     5     6     1    1
     6     1    18    1
     7    18    20    1
     8    20    21    1
     9    21    22    1
    10    22    24    1
    11    24    25   ar
    12    25    26   ar
    13    26    27   ar
    14    27    28   ar
    15    28    29   ar
    16    29    30   ar
    17    30    31    1
    18    30    32   ar
    19    32    33   ar
    20    33    34   ar
    21     1     9    1
    22     9    10   ar
    23    10    11   ar
    24    11    12   ar
    25    12    13   ar
    26    13    14    1
    27    14    15    1
    28    14    16    1
    29    14    17    1
    30     6     7   ar
    31     7     8   ar
    32     8     3   ar
    33    34    24   ar
    34    13     9   ar
    35    34    28   ar
    36    18    19    1
    37    22    23    1
@<TRIPOS>MOLECULE
*****
 34 37 0 0 0
SMALL
GASTEIGER

@<TRIPOS>ATOM
      1 C          64.5726   91.3255   14.1874 C.3     1  UNL1        0.1379
      2 C          63.0561   86.2789   17.0565 C.3     1  UNL1        0.0310
      3 C          63.4352   87.5405   16.3392 C.ar    1  UNL1       -0.0219
      4 C          63.0298   88.8720   16.8984 C.ar    1  UNL1       -0.0045
      5 C          63.4089   90.1336   16.1812 C.ar    1  UNL1       -0.0029
      6 C          64.1935   90.0638   14.9047 C.ar    1  UNL1       -0.0007
      7 C          64.5990   88.7323   14.3454 C.ar    1  UNL1       -0.0029
      8 C          64.2198   87.4706   15.0627 C.ar    1  UNL1       -0.0045
      9 C          65.7290   92.1469   14.6751 C.ar    1  UNL1        0.1791
     10 N          66.0434   92.4641   16.1071 N.ar    1  UNL1       -0.1110
     11 N          67.2828   93.3087   16.1335 N.ar    1  UNL1       -0.0229
     12 N          67.7344   93.5134   14.7177 N.ar    1  UNL1       -0.0432
     13 N          66.7741   92.7954   13.8165 N.ar    1  UNL1       -0.2192
     14 C          66.8463   92.7362   12.3194 C.3     1  UNL1        0.0896
     15 C          66.0979   94.0332   12.2320 C.3     1  UNL1        0.0245
     16 C          67.4486   91.7053   12.0946 C.3     1  UNL1        0.0245
     17 C          66.9185   92.6770   10.8223 C.3     1  UNL1        0.0245
     18 N          63.7953   91.7656   12.9823 N.3     1  UNL1       -0.2876
     19 H          64.1640   92.6772   12.7110 H       1  UNL1        0.1239
     20 C          63.7849   90.9170   11.7455 C.3     1  UNL1        0.0905
     21 C          62.6563   91.0348   10.7646 C.3     1  UNL1        0.1044
     22 N          61.3788   90.2839   10.9974 N.pl3   1  UNL1       -0.3315
     23 H          60.7815   90.5454   11.7351 H       1  UNL1        0.1469
     24 C          61.0114   89.1345   10.1063 C.ar    1  UNL1        0.0477
     25 C          60.1402   89.3640    8.9070 C.ar    1  UNL1        0.0350
     26 C          59.7728   88.2147    8.0160 C.ar    1  UNL1        0.1001
     27 N          60.2765   86.8358    8.3243 N.ar    1  UNL1       -0.2437
     28 C          61.1476   86.6063    9.5236 C.ar    1  UNL1        0.0833
     29 C          61.6514   85.2275    9.8319 C.ar    1  UNL1        0.0305
     30 C          62.5225   84.9980   11.0312 C.ar    1  UNL1        0.0592
     31 CL         63.0262   83.6191   11.3395 Cl      1  UNL1       -0.0822
     32 C          62.8899   86.1474   11.9223 C.ar    1  UNL1        0.0115
     33 C          62.3862   87.5262   11.6140 C.ar    1  UNL1        0.0036
     34 C          61.5151   87.7557   10.4146 C.ar    1  UNL1        0.0309
@<TRIPOS>BOND
     1     2     3    1
     2     3     4   ar
     3     4     5   ar
     4     5     6   ar
     5     6     1    1
     6     1    18    1
     7    18    20    1
     8    20    21    1
     9    21    22    1
    10    22    24    1
    11    24    25   ar
    12    25    26   ar
    13    26    27   ar
    14    27    28   ar
    15    28    29   ar
    16    29    30   ar
    17    30    31    1
    18    30    32   ar
    19    32    33   ar
    20    33    34   ar
    21     1     9    1
    22     9    10   ar
    23    10    11   ar
    24    11    12   ar
    25    12    13   ar
    26    13    14    1
    27    14    15    1
    28    14    16    1
    29    14    17    1
    30     6     7   ar
    31     7     8   ar
    32     8     3   ar
    33    34    24   ar
    34    13     9   ar
    35    34    28   ar
    36    18    19    1
    37    22    23    1
@<TRIPOS>MOLECULE
*****
 34 37 0 0 0
SMALL
GASTEIGER

@<TRIPOS>ATOM
      1 C          63.8441   89.4814   14.0265 C.3     1  UNL1        0.1379
      2 C          60.1924   90.1355    9.3109 C.3     1  UNL1        0.0310
      3 C          61.1053   89.9720   10.4898 C.ar    1  UNL1       -0.0219
      4 C          62.5915   90.0555   10.3048 C.ar    1  UNL1       -0.0045
      5 C          63.5044   89.8919   11.4837 C.ar    1  UNL1       -0.0029
      6 C          62.9312   89.6449   12.8476 C.ar    1  UNL1       -0.0007
      7 C          61.4449   89.5615   13.0327 C.ar    1  UNL1       -0.0029
      8 C          60.5320   89.7250   11.8538 C.ar    1  UNL1       -0.0045
      9 C          64.0693   90.6292   14.9656 C.ar    1  UNL1        0.1791
     10 N          63.3029   90.9004   16.2262 N.ar    1  UNL1       -0.1110
     11 N          63.8604   92.1461   16.8487 N.ar    1  UNL1       -0.0229
     12 N          64.9714   92.6447   15.9728 N.ar    1  UNL1       -0.0432
     13 N          65.1005   91.7072   14.8090 N.ar    1  UNL1       -0.2192
     14 C          66.0875   91.8267   13.6859 C.3     1  UNL1        0.0896
     15 C          67.1339   91.1682   14.5352 C.3     1  UNL1        0.0245
     16 C          65.4586   92.3677   12.7982 C.3     1  UNL1        0.0245
     17 C          67.0744   91.9463   12.5627 C.3     1  UNL1        0.0245
     18 N          64.5319   88.1700   14.2663 N.3     1  UNL1       -0.2876
     19 H          65.5227   88.3761   14.3934 H       1  UNL1        0.1239
     20 C          64.1178   87.3061   15.4205 C.3     1  UNL1        0.0905
     21 C          64.0933   85.8139   15.2695 C.3     1  UNL1        0.1044
     22 N          63.0611   85.1654   14.3955 N.pl3   1  UNL1       -0.3315
     23 H          62.1040   85.2806   14.5955 H       1  UNL1        0.1469
     24 C          63.4871   84.3413   13.2167 C.ar    1  UNL1        0.0477
     25 C          64.3236   83.1134   13.4230 C.ar    1  UNL1        0.0350
     26 C          64.7495   82.2894   12.2442 C.ar    1  UNL1        0.1001
     27 N          64.3390   82.6933   10.8591 N.ar    1  UNL1       -0.2437
     28 C          63.5025   83.9211   10.6529 C.ar    1  UNL1        0.0833
     29 C          63.0920   84.3250    9.2678 C.ar    1  UNL1        0.0305
     30 C          62.2555   85.5529    9.0615 C.ar    1  UNL1        0.0592
     31 CL         61.8450   85.9567    7.6765 Cl      1  UNL1       -0.0822
     32 C          61.8295   86.3769   10.2403 C.ar    1  UNL1        0.0115
     33 C          62.2400   85.9731   11.6254 C.ar    1  UNL1        0.0036
     34 C          63.0766   84.7451   11.8316 C.ar    1  UNL1        0.0309
@<TRIPOS>BOND
     1     2     3    1
     2     3     4   ar
     3     4     5   ar
     4     5     6   ar
     5     6     1    1
     6     1    18    1
     7    18    20    1
     8    20    21    1
     9    21    22    1
    10    22    24    1
    11    24    25   ar
    12    25    26   ar
    13    26    27   ar
    14    27    28   ar
    15    28    29   ar
    16    29    30   ar
    17    30    31    1
    18    30    32   ar
    19    32    33   ar
    20    33    34   ar
    21     1     9    1
    22     9    10   ar
    23    10    11   ar
    24    11    12   ar
    25    12    13   ar
    26    13    14    1
    27    14    15    1
    28    14    16    1
    29    14    17    1
    30     6     7   ar
    31     7     8   ar
    32     8     3   ar
    33    34    24   ar
    34    13     9   ar
    35    34    28   ar
    36    18    19    1
    37    22    23    1
@<TRIPOS>MOLECULE
*****
 34 37 0 0 0
SMALL
GASTEIGER

@<TRIPOS>ATOM
      1 C          61.7237   87.1258   11.0149 C.3     1  UNL1        0.1379
      2 C          61.5103   84.3995    5.6743 C.3     1  UNL1        0.0310
      3 C          61.5636   85.0811    7.0094 C.ar    1  UNL1       -0.0219
      4 C          60.3607   85.8127    7.5266 C.ar    1  UNL1       -0.0045
      5 C          60.4140   86.4943    8.8618 C.ar    1  UNL1       -0.0029
      6 C          61.6703   86.4442    9.6797 C.ar    1  UNL1       -0.0007
      7 C          62.8734   85.7126    9.1626 C.ar    1  UNL1       -0.0029
      8 C          62.8201   85.0310    7.8274 C.ar    1  UNL1       -0.0045
      9 C          60.7691   88.2400   11.3268 C.ar    1  UNL1        0.1791
     10 N          59.3666   88.0832   11.8351 N.ar    1  UNL1       -0.1110
     11 N          58.7802   89.4530   12.0076 N.ar    1  UNL1       -0.0229
     12 N          59.8204   90.4564   11.6060 N.ar    1  UNL1       -0.0432
     13 N          61.0496   89.7068   11.1853 N.ar    1  UNL1       -0.2192
     14 C          62.3337   90.3168   10.7069 C.3     1  UNL1        0.0896
     15 C          62.7479   90.5593   12.1280 C.3     1  UNL1        0.0245
     16 C          62.2599   90.2458    9.4963 C.3     1  UNL1        0.0245
     17 C          63.6178   90.9268   10.2285 C.3     1  UNL1        0.0245
     18 N          62.7316   86.6931   12.0381 N.3     1  UNL1       -0.2876
     19 H          62.6586   87.3465   12.8180 H       1  UNL1        0.1239
     20 C          62.6629   85.3129   12.6216 C.3     1  UNL1        0.0905
     21 C          63.9085   84.6522   13.1333 C.3     1  UNL1        0.1044
     22 N          64.6418   85.2381   14.3033 N.pl3   1  UNL1       -0.3315
     23 H          65.6223   85.1665   14.3557 H       1  UNL1        0.1469
     24 C          63.8811   85.9331   15.3936 C.ar    1  UNL1        0.0477
     25 C          63.0813   85.1323   16.3779 C.ar    1  UNL1        0.0350
     26 C          62.3208   85.8273   17.4681 C.ar    1  UNL1        0.1001
     27 N          62.3600   87.3230   17.5739 N.ar    1  UNL1       -0.2437
     28 C          63.1598   88.1238   16.5895 C.ar    1  UNL1        0.0833
     29 C          63.1990   89.6195   16.6953 C.ar    1  UNL1        0.0305
     30 C          63.9989   90.4203   15.7110 C.ar    1  UNL1        0.0592
     31 CL         64.0381   91.9161   15.8168 Cl      1  UNL1       -0.0822
     32 C          64.7595   89.7253   14.6208 C.ar    1  UNL1        0.0115
     33 C          64.7203   88.2296   14.5150 C.ar    1  UNL1        0.0036
     34 C          63.9204   87.4288   15.4994 C.ar    1  UNL1        0.0309
@<TRIPOS>BOND
     1     2     3    1
     2     3     4   ar
     3     4     5   ar
     4     5     6   ar
     5     6     1    1
     6     1    18    1
     7    18    20    1
     8    20    21    1
     9    21    22    1
    10    22    24    1
    11    24    25   ar
    12    25    26   ar
    13    26    27   ar
    14    27    28   ar
    15    28    29   ar
    16    29    30   ar
    17    30    31    1
    18    30    32   ar
    19    32    33   ar
    20    33    34   ar
    21     1     9    1
    22     9    10   ar
    23    10    11   ar
    24    11    12   ar
    25    12    13   ar
    26    13    14    1
    27    14    15    1
    28    14    16    1
    29    14    17    1
    30     6     7   ar
    31     7     8   ar
    32     8     3   ar
    33    34    24   ar
    34    13     9   ar
    35    34    28   ar
    36    18    19    1
    37    22    23    1
@<TRIPOS>MOLECULE
*****
 34 37 0 0 0
SMALL
GASTEIGER

@<TRIPOS>ATOM
      1 C          62.9374   86.1968   12.1341 C.3     1  UNL1        0.1379
      2 C          59.1841   87.2025    7.5623 C.3     1  UNL1        0.0310
      3 C          60.1224   86.9511    8.7053 C.ar    1  UNL1       -0.0219
      4 C          61.3661   86.1405    8.4903 C.ar    1  UNL1       -0.0045
      5 C          62.3044   85.8890    9.6332 C.ar    1  UNL1       -0.0029
      6 C          61.9991   86.4482   10.9912 C.ar    1  UNL1       -0.0007
      7 C          60.7554   87.2589   11.2062 C.ar    1  UNL1       -0.0029
      8 C          59.8171   87.5103   10.0633 C.ar    1  UNL1       -0.0045
      9 C          63.3841   84.7988   12.4441 C.ar    1  UNL1        0.1791
     10 N          63.6059   83.7021   11.4451 N.ar    1  UNL1       -0.1110
     11 N          64.0464   82.4776   12.1912 N.ar    1  UNL1       -0.0229
     12 N          64.0968   82.8176   13.6513 N.ar    1  UNL1       -0.0432
     13 N          63.6875   84.2522   13.8076 N.ar    1  UNL1       -0.2192
     14 C          63.5975   85.0075   15.1004 C.3     1  UNL1        0.0896
     15 C          62.2089   84.4810   15.3114 C.3     1  UNL1        0.0245
     16 C          64.6712   85.5693   15.1881 C.3     1  UNL1        0.0245
     17 C          63.5075   85.7628   16.3932 C.3     1  UNL1        0.0245
     18 N          63.4290   87.3434   12.9671 N.3     1  UNL1       -0.2876
     19 H          64.4009   87.1415   13.2016 H       1  UNL1        0.1239
     20 C          63.3972   88.7383   12.4163 C.3     1  UNL1        0.0905
     21 C          62.8997   89.8692   13.2667 C.3     1  UNL1        0.1044
     22 N          63.1039   91.2875   12.8230 N.pl3   1  UNL1       -0.3315
     23 H          62.3501   91.9206   12.8358 H       1  UNL1        0.1469
     24 C          64.4566   91.7410   12.3598 C.ar    1  UNL1        0.0477
     25 C          64.6984   92.0143   10.9049 C.ar    1  UNL1        0.0350
     26 C          66.0511   92.4678   10.4417 C.ar    1  UNL1        0.1001
     27 N          67.1620   92.6479   11.4334 N.ar    1  UNL1       -0.2437
     28 C          66.9202   92.3746   12.8883 C.ar    1  UNL1        0.0833
     29 C          68.0311   92.5547   13.8800 C.ar    1  UNL1        0.0305
     30 C          67.7892   92.2813   15.3349 C.ar    1  UNL1        0.0592
     31 CL         68.9001   92.4614   16.3267 Cl      1  UNL1       -0.0822
     32 C          66.4365   91.8278   15.7982 C.ar    1  UNL1        0.0115
     33 C          65.3256   91.6477   14.8064 C.ar    1  UNL1        0.0036
     34 C          65.5675   91.9211   13.3515 C.ar    1  UNL1        0.0309
@<TRIPOS>BOND
     1     2     3    1
     2     3     4   ar
     3     4     5   ar
     4     5     6   ar
     5     6     1    1
     6     1    18    1
     7    18    20    1
     8    20    21    1
     9    21    22    1
    10    22    24    1
    11    24    25   ar
    12    25    26   ar
    13    26    27   ar
    14    27    28   ar
    15    28    29   ar
    16    29    30   ar
    17    30    31    1
    18    30    32   ar
    19    32    33   ar
    20    33    34   ar
    21     1     9    1
    22     9    10   ar
    23    10    11   ar
    24    11    12   ar
    25    12    13   ar
    26    13    14    1
    27    14    15    1
    28    14    16    1
    29    14    17    1
    30     6     7   ar
    31     7     8   ar
    32     8     3   ar
    33    34    24   ar
    34    13     9   ar
    35    34    28   ar
    36    18    19    1
    37    22    23    1
@<TRIPOS>MOLECULE
*****
 34 37 0 0 0
SMALL
GASTEIGER

@<TRIPOS>ATOM
      1 C          61.5908   86.4713   11.3255 C.3     1  UNL1        0.1379
      2 C          62.3392   84.4622    5.7216 C.3     1  UNL1        0.0310
      3 C          62.1521   84.9645    7.1226 C.ar    1  UNL1       -0.0219
      4 C          60.8361   85.5513    7.5395 C.ar    1  UNL1       -0.0045
      5 C          60.6490   86.0536    8.9405 C.ar    1  UNL1       -0.0029
      6 C          61.7779   85.9690    9.9245 C.ar    1  UNL1       -0.0007
      7 C          63.0939   85.3821    9.5077 C.ar    1  UNL1       -0.0029
      8 C          63.2810   84.8799    8.1067 C.ar    1  UNL1       -0.0045
      9 C          62.7011   86.3366   12.3251 C.ar    1  UNL1        0.1791
     10 N          63.4743   87.4647   12.9413 N.ar    1  UNL1       -0.1110
     11 N          64.4842   86.8756   13.8810 N.ar    1  UNL1       -0.0229
     12 N          64.3351   85.3834   13.8455 N.ar    1  UNL1       -0.0432
     13 N          63.2331   85.0503   12.8839 N.ar    1  UNL1       -0.2192
     14 C          62.7482   83.6728   12.5414 C.3     1  UNL1        0.0896
     15 C          61.9074   83.6598   13.7835 C.3     1  UNL1        0.0245
     16 C          63.3140   83.4130   11.4980 C.3     1  UNL1        0.0245
     17 C          62.2634   82.2953   12.1988 C.3     1  UNL1        0.0245
     18 N          60.2934   87.1082   11.7269 N.3     1  UNL1       -0.2876
     19 H          60.3029   87.1799   12.7444 H       1  UNL1        0.1239
     20 C          59.9294   88.4648   11.2006 C.3     1  UNL1        0.0905
     21 C          60.2571   89.6917   11.9989 C.3     1  UNL1        0.1044
     22 N          61.5613   89.7818   12.7344 N.pl3   1  UNL1       -0.3315
     23 H          61.6793   89.3048   13.5875 H       1  UNL1        0.1469
     24 C          62.6857   90.5987   12.1700 C.ar    1  UNL1        0.0477
     25 C          62.7187   90.9181   10.7049 C.ar    1  UNL1        0.0350
     26 C          63.8431   91.7350   10.1406 C.ar    1  UNL1        0.1001
     27 N          64.9344   92.2324   11.0415 N.ar    1  UNL1       -0.2437
     28 C          64.9014   91.9130   12.5066 C.ar    1  UNL1        0.0833
     29 C          65.9927   92.4104   13.4075 C.ar    1  UNL1        0.0305
     30 C          65.9596   92.0909   14.8727 C.ar    1  UNL1        0.0592
     31 CL         67.0510   92.5883   15.7736 Cl      1  UNL1       -0.0822
     32 C          64.8352   91.2740   15.4371 C.ar    1  UNL1        0.0115
     33 C          63.7439   90.7766   14.5362 C.ar    1  UNL1        0.0036
     34 C          63.7770   91.0961   13.0709 C.ar    1  UNL1        0.0309
@<TRIPOS>BOND
     1     2     3    1
     2     3     4   ar
     3     4     5   ar
     4     5     6   ar
     5     6     1    1
     6     1    18    1
     7    18    20    1
     8    20    21    1
     9    21    22    1
    10    22    24    1
    11    24    25   ar
    12    25    26   ar
    13    26    27   ar
    14    27    28   ar
    15    28    29   ar
    16    29    30   ar
    17    30    31    1
    18    30    32   ar
    19    32    33   ar
    20    33    34   ar
    21     1     9    1
    22     9    10   ar
    23    10    11   ar
    24    11    12   ar
    25    12    13   ar
    26    13    14    1
    27    14    15    1
    28    14    16    1
    29    14    17    1
    30     6     7   ar
    31     7     8   ar
    32     8     3   ar
    33    34    24   ar
    34    13     9   ar
    35    34    28   ar
    36    18    19    1
    37    22    23    1
@<TRIPOS>MOLECULE
*****
 34 37 0 0 0
SMALL
GASTEIGER

@<TRIPOS>ATOM
      1 C          64.0806   91.4130   12.4574 C.3     1  UNL1        0.1379
      2 C          60.8764   87.4431    9.2994 C.3     1  UNL1        0.0310
      3 C          61.6775   88.4356   10.0889 C.ar    1  UNL1       -0.0219
      4 C          62.4549   87.9860   11.2903 C.ar    1  UNL1       -0.0045
      5 C          63.2559   88.9784   12.0798 C.ar    1  UNL1       -0.0029
      6 C          63.2796   90.4205   11.6679 C.ar    1  UNL1       -0.0007
      7 C          62.5022   90.8703   10.4665 C.ar    1  UNL1       -0.0029
      8 C          61.7011   89.8778    9.6770 C.ar    1  UNL1       -0.0045
      9 C          65.1705   92.1980   11.7898 C.ar    1  UNL1        0.1791
     10 N          65.1785   92.6572   10.3618 N.ar    1  UNL1       -0.1110
     11 N          66.4567   93.4046   10.1223 N.ar    1  UNL1       -0.0229
     12 N          67.2388   93.4074   11.4023 N.ar    1  UNL1       -0.0432
     13 N          66.4439   92.6616   12.4328 N.ar    1  UNL1       -0.2192
     14 C          66.8509   92.4217   13.8565 C.3     1  UNL1        0.0896
     15 C          66.4560   93.8259   14.2061 C.3     1  UNL1        0.0245
     16 C          67.2411   91.2711   13.8607 C.3     1  UNL1        0.0245
     17 C          67.2580   92.1817   15.2800 C.3     1  UNL1        0.0245
     18 N          63.7917   91.6205   13.9147 N.3     1  UNL1       -0.2876
     19 H          62.9843   92.2414   13.9694 H       1  UNL1        0.1239
     20 C          63.4929   90.4433   14.7951 C.3     1  UNL1        0.0905
     21 C          64.5980   89.5182   15.2110 C.3     1  UNL1        0.1044
     22 N          64.5813   88.0843   14.7709 N.pl3   1  UNL1       -0.3315
     23 H          65.0809   87.8099   13.9683 H       1  UNL1        0.1469
     24 C          63.8033   87.0685   15.5540 C.ar    1  UNL1        0.0477
     25 C          63.1939   87.4438   16.8722 C.ar    1  UNL1        0.0350
     26 C          62.4160   86.4280   17.6551 C.ar    1  UNL1        0.1001
     27 N          62.2475   85.0370   17.1198 N.ar    1  UNL1       -0.2437
     28 C          62.8568   84.6617   15.8016 C.ar    1  UNL1        0.0833
     29 C          62.6883   83.2706   15.2663 C.ar    1  UNL1        0.0305
     30 C          63.2976   82.8953   13.9481 C.ar    1  UNL1        0.0592
     31 CL         63.1291   81.5043   13.4128 Cl      1  UNL1       -0.0822
     32 C          64.0756   83.9111   13.1650 C.ar    1  UNL1        0.0115
     33 C          64.2442   85.3022   13.7003 C.ar    1  UNL1        0.0036
     34 C          63.6347   85.6775   15.0187 C.ar    1  UNL1        0.0309
@<TRIPOS>BOND
     1     2     3    1
     2     3     4   ar
     3     4     5   ar
     4     5     6   ar
     5     6     1    1
     6     1    18    1
     7    18    20    1
     8    20    21    1
     9    21    22    1
    10    22    24    1
    11    24    25   ar
    12    25    26   ar
    13    26    27   ar
    14    27    28   ar
    15    28    29   ar
    16    29    30   ar
    17    30    31    1
    18    30    32   ar
    19    32    33   ar
    20    33    34   ar
    21     1     9    1
    22     9    10   ar
    23    10    11   ar
    24    11    12   ar
    25    12    13   ar
    26    13    14    1
    27    14    15    1
    28    14    16    1
    29    14    17    1
    30     6     7   ar
    31     7     8   ar
    32     8     3   ar
    33    34    24   ar
    34    13     9   ar
    35    34    28   ar
    36    18    19    1
    37    22    23    1
@<TRIPOS>MOLECULE
*****
 34 37 0 0 0
SMALL
GASTEIGER

@<TRIPOS>ATOM
      1 C          62.8076   85.6901   11.6397 C.3     1  UNL1        0.1379
      2 C          59.0123   87.6694    7.4351 C.3     1  UNL1        0.0310
      3 C          59.9612   87.1746    8.4862 C.ar    1  UNL1       -0.0219
      4 C          59.8140   87.6352    9.9061 C.ar    1  UNL1       -0.0045
      5 C          60.7629   87.1404   10.9573 C.ar    1  UNL1       -0.0029
      6 C          61.8588   86.1850   10.5885 C.ar    1  UNL1       -0.0007
      7 C          62.0059   85.7243    9.1686 C.ar    1  UNL1       -0.0029
      8 C          61.0571   86.2191    8.1174 C.ar    1  UNL1       -0.0045
      9 C          63.4633   84.3497   11.4871 C.ar    1  UNL1        0.1791
     10 N          63.9404   83.7429   10.2010 N.ar    1  UNL1       -0.1110
     11 N          64.5290   82.3989   10.5129 N.ar    1  UNL1       -0.0229
     12 N          64.4155   82.1751   11.9918 N.ar    1  UNL1       -0.0432
     13 N          63.7569   83.3808   12.5939 N.ar    1  UNL1       -0.2192
     14 C          63.4464   83.5822   14.0475 C.3     1  UNL1        0.0896
     15 C          64.8221   84.1393   14.2642 C.3     1  UNL1        0.0245
     16 C          62.3043   83.1838   14.1621 C.3     1  UNL1        0.0245
     17 C          63.1359   83.7835   15.5011 C.3     1  UNL1        0.0245
     18 N          63.1007   86.5358   12.8434 N.3     1  UNL1       -0.2876
     19 H          63.8764   86.0909   13.3341 H       1  UNL1        0.1239
     20 C          63.4672   87.9805   12.6739 C.3     1  UNL1        0.0905
     21 C          64.0086   88.7583   13.8365 C.3     1  UNL1        0.1044
     22 N          63.5701   90.1752   14.0603 N.pl3   1  UNL1       -0.3315
     23 H          62.6108   90.3943   14.0931 H       1  UNL1        0.1469
     24 C          64.5932   91.2584   14.2343 C.ar    1  UNL1        0.0477
     25 C          65.1362   91.5651   15.5984 C.ar    1  UNL1        0.0350
     26 C          66.1592   92.6482   15.7723 C.ar    1  UNL1        0.1001
     27 N          66.6393   93.4245   14.5820 N.ar    1  UNL1       -0.2437
     28 C          66.0962   93.1178   13.2178 C.ar    1  UNL1        0.0833
     29 C          66.5762   93.8942   12.0275 C.ar    1  UNL1        0.0305
     30 C          66.0332   93.5875   10.6633 C.ar    1  UNL1        0.0592
     31 CL         66.5132   94.3639    9.4730 Cl      1  UNL1       -0.0822
     32 C          65.0101   92.5044   10.4894 C.ar    1  UNL1        0.0115
     33 C          64.5301   91.7280   11.6797 C.ar    1  UNL1        0.0036
     34 C          65.0732   92.0348   13.0439 C.ar    1  UNL1        0.0309
@<TRIPOS>BOND
     1     2     3    1
     2     3     4   ar
     3     4     5   ar
     4     5     6   ar
     5     6     1    1
     6     1    18    1
     7    18    20    1
     8    20    21    1
     9    21    22    1
    10    22    24    1
    11    24    25   ar
    12    25    26   ar
    13    26    27   ar
    14    27    28   ar
    15    28    29   ar
    16    29    30   ar
    17    30    31    1
    18    30    32   ar
    19    32    33   ar
    20    33    34   ar
    21     1     9    1
    22     9    10   ar
    23    10    11   ar
    24    11    12   ar
    25    12    13   ar
    26    13    14    1
    27    14    15    1
    28    14    16    1
    29    14    17    1
    30     6     7   ar
    31     7     8   ar
    32     8     3   ar
    33    34    24   ar
    34    13     9   ar
    35    34    28   ar
    36    18    19    1
    37    22    23    1
@<TRIPOS>MOLECULE
*****
 34 37 0 0 0
SMALL
GASTEIGER

@<TRIPOS>ATOM
      1 C          63.0108   89.1201   12.4276 C.3     1  UNL1        0.1379
      2 C          66.1610   94.1695   11.6666 C.3     1  UNL1        0.0310
      3 C          65.3734   92.9072   11.8568 C.ar    1  UNL1       -0.0219
      4 C          65.3757   92.2152   13.1876 C.ar    1  UNL1       -0.0045
      5 C          64.5881   90.9528   13.3778 C.ar    1  UNL1       -0.0029
      6 C          63.7983   90.3825   12.2373 C.ar    1  UNL1       -0.0007
      7 C          63.7961   91.0745   10.9064 C.ar    1  UNL1       -0.0029
      8 C          64.5836   92.3369   10.7162 C.ar    1  UNL1       -0.0045
      9 C          61.5723   89.0629   12.0064 C.ar    1  UNL1        0.1791
     10 N          60.4999   90.0363   12.3969 N.ar    1  UNL1       -0.1110
     11 N          59.2184   89.5973   11.7527 N.ar    1  UNL1       -0.0229
     12 N          59.4988   88.3525   10.9640 N.ar    1  UNL1       -0.0432
     13 N          60.9536   88.0223   11.1209 N.ar    1  UNL1       -0.2192
     14 C          61.6647   86.8561   10.5009 C.3     1  UNL1        0.0896
     15 C          62.0732   87.7198    9.3446 C.3     1  UNL1        0.0245
     16 C          61.4831   85.9487   11.2882 C.3     1  UNL1        0.0245
     17 C          62.3759   85.6899    9.8811 C.3     1  UNL1        0.0245
     18 N          63.6618   87.9149   13.0390 N.3     1  UNL1       -0.2876
     19 H          64.4192   87.6402   12.4134 H       1  UNL1        0.1239
     20 C          64.2471   87.9970   14.4176 C.3     1  UNL1        0.0905
     21 C          64.9059   86.7944   15.0255 C.3     1  UNL1        0.1044
     22 N          65.0173   85.5222   14.2387 N.pl3   1  UNL1       -0.3315
     23 H          65.7864   85.3787   13.6411 H       1  UNL1        0.1469
     24 C          63.9568   84.4685   14.3625 C.ar    1  UNL1        0.0477
     25 C          63.1090   84.3992   15.5979 C.ar    1  UNL1        0.0350
     26 C          62.0486   83.3456   15.7216 C.ar    1  UNL1        0.1001
     27 N          61.8360   82.3613   14.6099 N.ar    1  UNL1       -0.2437
     28 C          62.6838   82.4306   13.3744 C.ar    1  UNL1        0.0833
     29 C          62.4712   81.4463   12.2627 C.ar    1  UNL1        0.0305
     30 C          63.3190   81.5156   11.0273 C.ar    1  UNL1        0.0592
     31 CL         63.1065   80.5313    9.9155 Cl      1  UNL1       -0.0822
     32 C          64.3795   82.5693   10.9035 C.ar    1  UNL1        0.0115
     33 C          64.5921   83.5536   12.0153 C.ar    1  UNL1        0.0036
     34 C          63.7442   83.4842   13.2507 C.ar    1  UNL1        0.0309
@<TRIPOS>BOND
     1     2     3    1
     2     3     4   ar
     3     4     5   ar
     4     5     6   ar
     5     6     1    1
     6     1    18    1
     7    18    20    1
     8    20    21    1
     9    21    22    1
    10    22    24    1
    11    24    25   ar
    12    25    26   ar
    13    26    27   ar
    14    27    28   ar
    15    28    29   ar
    16    29    30   ar
    17    30    31    1
    18    30    32   ar
    19    32    33   ar
    20    33    34   ar
    21     1     9    1
    22     9    10   ar
    23    10    11   ar
    24    11    12   ar
    25    12    13   ar
    26    13    14    1
    27    14    15    1
    28    14    16    1
    29    14    17    1
    30     6     7   ar
    31     7     8   ar
    32     8     3   ar
    33    34    24   ar
    34    13     9   ar
    35    34    28   ar
    36    18    19    1
    37    22    23    1
