@<TRIPOS>MOLECULE
*****
 29 33 0 0 0
SMALL
GASTEIGER

@<TRIPOS>ATOM
      1 C          66.0409   94.1128   12.1274 C.ar    1  UNL1        0.0529
      2 C          66.4647   94.0013   13.5619 C.ar    1  UNL1        0.0042
      3 C          66.0671   92.8021   14.3704 C.ar    1  UNL1       -0.0044
      4 C          65.2456   91.7144   13.7443 C.ar    1  UNL1       -0.0239
      5 C          64.8218   91.8259   12.3098 C.ar    1  UNL1        0.0005
      6 C          65.2194   93.0251   11.5013 C.ar    1  UNL1        0.0022
      7 C          64.0002   90.7382   11.6837 C.3     1  UNL1        0.1345
      8 O          63.5764   90.8497   10.2491 O.3     1  UNL1       -0.3800
      9 C          63.6026   89.5388   12.4922 C.3     1  UNL1        0.0565
     10 C          64.0264   89.4274   13.9267 C.3     1  UNL1        0.0096
     11 C          64.8479   90.5151   14.5528 C.3     1  UNL1        0.0263
     12 H          63.0559   90.0687   10.0041 H       1  UNL1        0.2108
     13 C          62.7810   88.4511   11.8661 C.3     1  UNL1        0.1121
     14 C          62.9087   86.9817   12.1392 C.ar    1  UNL1       -0.0002
     15 C          63.8176   86.2043   13.0445 C.ar    1  UNL1       -0.0024
     16 C          63.7120   84.7095   13.1094 C.ar    1  UNL1       -0.0003
     17 C          62.6975   83.9920   12.2691 C.ar    1  UNL1        0.0000
     18 C          61.7886   84.7694   11.3638 C.ar    1  UNL1        0.0012
     19 C          61.8942   86.2643   11.2989 C.ar    1  UNL1        0.0152
     20 C          61.1396   87.2903   10.5065 C.ar    1  UNL1        0.0804
     21 C          60.0462   87.4810    9.4973 C.ar    1  UNL1        0.1177
     22 N          59.9187   88.9504    9.2243 N.ar    1  UNL1       -0.2223
     23 C          60.9331   89.6679   10.0646 C.ar    1  UNL1        0.1788
     24 N          61.6877   88.6418   10.8570 N.ar    1  UNL1       -0.3069
     25 N          65.7849   96.6382   11.5728 N.am    1  UNL1       -0.3253
     26 C          66.4386   95.3122   11.3189 C.2     1  UNL1        0.2427
     27 O          67.4899   95.1854   10.2565 O.2     1  UNL1       -0.2704
     28 H          66.0459   97.4253   11.0422 H       1  UNL1        0.1453
     29 H          65.0949   96.7213   12.2701 H       1  UNL1        0.1453
@<TRIPOS>BOND
     1    25    26   am
     2    26    27    2
     3    26     1    1
     4     1     2   ar
     5     2     3   ar
     6     3     4   ar
     7     4     5   ar
     8     5     6   ar
     9     5     7    1
    10     7     8    1
    11     7     9    1
    12     9    13    1
    13    13    14    1
    14    14    15   ar
    15    15    16   ar
    16    16    17   ar
    17    17    18   ar
    18    18    19   ar
    19    19    20    1
    20    20    21   ar
    21    21    22   ar
    22    22    23   ar
    23    23    24   ar
    24     9    10    1
    25    10    11    1
    26     6     1   ar
    27    13    24    1
    28    11     4    1
    29    19    14   ar
    30    24    20   ar
    31    25    28    1
    32    25    29    1
    33     8    12    1
@<TRIPOS>MOLECULE
*****
 29 33 0 0 0
SMALL
GASTEIGER

@<TRIPOS>ATOM
      1 C          60.3673   87.5863    8.8846 C.ar    1  UNL1        0.0529
      2 C          60.6120   86.1887    9.3713 C.ar    1  UNL1        0.0042
      3 C          61.5201   85.9500   10.5410 C.ar    1  UNL1       -0.0044
      4 C          62.1835   87.1090   11.2241 C.ar    1  UNL1       -0.0239
      5 C          61.9388   88.5066   10.7374 C.ar    1  UNL1        0.0005
      6 C          61.0307   88.7453    9.5677 C.ar    1  UNL1        0.0022
      7 C          62.6022   89.6655   11.4206 C.3     1  UNL1        0.1345
      8 O          62.3576   91.0631   10.9339 O.3     1  UNL1       -0.3800
      9 C          63.5104   89.4269   12.5904 C.3     1  UNL1        0.0565
     10 C          63.7550   88.0294   13.0770 C.3     1  UNL1        0.0096
     11 C          63.0916   86.8704   12.3939 C.3     1  UNL1        0.0263
     12 H          62.8580   91.6884   11.4812 H       1  UNL1        0.2108
     13 C          64.1738   90.5859   13.2735 C.3     1  UNL1        0.1121
     14 C          64.9989   91.6470   12.6078 C.ar    1  UNL1       -0.0002
     15 C          65.3871   91.8654   11.1755 C.ar    1  UNL1       -0.0024
     16 C          66.2400   93.0408   10.8004 C.ar    1  UNL1       -0.0003
     17 C          66.7048   93.9980   11.8577 C.ar    1  UNL1        0.0000
     18 C          66.3166   93.7797   13.2900 C.ar    1  UNL1        0.0012
     19 C          65.4637   92.6042   13.6651 C.ar    1  UNL1        0.0152
     20 C          64.9258   92.1346   14.9842 C.ar    1  UNL1        0.0804
     21 C          64.8806   92.4360   16.4530 C.ar    1  UNL1        0.1177
     22 N          64.0554   91.3748   17.1187 N.ar    1  UNL1       -0.2223
     23 C          63.5907   90.4176   16.0614 C.ar    1  UNL1        0.1788
     24 N          64.1286   90.8872   14.7422 N.ar    1  UNL1       -0.3069
     25 N          58.5908   86.7151    7.2007 N.am    1  UNL1       -0.3253
     26 C          59.4592   87.8249    7.7147 C.2     1  UNL1        0.2427
     27 O          59.4195   89.1734    7.0589 O.2     1  UNL1       -0.2704
     28 H          57.9948   86.8717    6.4330 H       1  UNL1        0.1453
     29 H          58.6169   85.8300    7.6312 H       1  UNL1        0.1453
@<TRIPOS>BOND
     1    25    26   am
     2    26    27    2
     3    26     1    1
     4     1     2   ar
     5     2     3   ar
     6     3     4   ar
     7     4     5   ar
     8     5     6   ar
     9     5     7    1
    10     7     8    1
    11     7     9    1
    12     9    13    1
    13    13    14    1
    14    14    15   ar
    15    15    16   ar
    16    16    17   ar
    17    17    18   ar
    18    18    19   ar
    19    19    20    1
    20    20    21   ar
    21    21    22   ar
    22    22    23   ar
    23    23    24   ar
    24     9    10    1
    25    10    11    1
    26     6     1   ar
    27    13    24    1
    28    11     4    1
    29    19    14   ar
    30    24    20   ar
    31    25    28    1
    32    25    29    1
    33     8    12    1
@<TRIPOS>MOLECULE
*****
 29 33 0 0 0
SMALL
GASTEIGER

@<TRIPOS>ATOM
      1 C          62.9340   81.6214   12.6700 C.ar    1  UNL1        0.0529
      2 C          63.7055   81.0047   11.5412 C.ar    1  UNL1        0.0042
      3 C          63.9440   81.7840   10.2819 C.ar    1  UNL1       -0.0044
      4 C          63.4109   83.1799   10.1515 C.ar    1  UNL1       -0.0239
      5 C          62.6393   83.7966   11.2804 C.ar    1  UNL1        0.0005
      6 C          62.4009   83.0174   12.5397 C.ar    1  UNL1        0.0022
      7 C          62.1062   85.1926   11.1500 C.3     1  UNL1        0.1345
      8 O          61.3347   85.8093   12.2789 O.3     1  UNL1       -0.3800
      9 C          62.3447   85.9720    9.8906 C.3     1  UNL1        0.0565
     10 C          63.1162   85.3553    8.7618 C.3     1  UNL1        0.0096
     11 C          63.6494   83.9593    8.8922 C.3     1  UNL1        0.0263
     12 H          61.0646   86.7079   12.0330 H       1  UNL1        0.2108
     13 C          61.8116   87.3680    9.7602 C.3     1  UNL1        0.1121
     14 C          62.2213   88.5492   10.5890 C.ar    1  UNL1       -0.0002
     15 C          63.2063   88.6950   11.7108 C.ar    1  UNL1       -0.0024
     16 C          63.4082   90.0307   12.3627 C.ar    1  UNL1       -0.0003
     17 C          62.6250   91.2206   11.8929 C.ar    1  UNL1        0.0000
     18 C          61.6400   91.0748   10.7711 C.ar    1  UNL1        0.0012
     19 C          61.4381   89.7391   10.1192 C.ar    1  UNL1        0.0152
     20 C          60.5444   89.2932    9.0001 C.ar    1  UNL1        0.0804
     21 C          59.5079   89.7532    8.0180 C.ar    1  UNL1        0.1177
     22 N          59.0983   88.5719    7.1892 N.ar    1  UNL1       -0.2223
     23 C          59.8815   87.3820    7.6590 C.ar    1  UNL1        0.1788
     24 N          60.7752   87.8278    8.7782 N.ar    1  UNL1       -0.3069
     25 N          61.3460   80.8686   14.5837 N.am    1  UNL1       -0.3253
     26 C          62.6955   80.8420   13.9294 C.2     1  UNL1        0.2427
     27 O          63.8066   80.0361   14.5344 O.2     1  UNL1       -0.2704
     28 H          61.1895   80.3571   15.4102 H       1  UNL1        0.1453
     29 H          60.6167   81.3976   14.1866 H       1  UNL1        0.1453
@<TRIPOS>BOND
     1    25    26   am
     2    26    27    2
     3    26     1    1
     4     1     2   ar
     5     2     3   ar
     6     3     4   ar
     7     4     5   ar
     8     5     6   ar
     9     5     7    1
    10     7     8    1
    11     7     9    1
    12     9    13    1
    13    13    14    1
    14    14    15   ar
    15    15    16   ar
    16    16    17   ar
    17    17    18   ar
    18    18    19   ar
    19    19    20    1
    20    20    21   ar
    21    21    22   ar
    22    22    23   ar
    23    23    24   ar
    24     9    10    1
    25    10    11    1
    26     6     1   ar
    27    13    24    1
    28    11     4    1
    29    19    14   ar
    30    24    20   ar
    31    25    28    1
    32    25    29    1
    33     8    12    1
@<TRIPOS>MOLECULE
*****
 29 33 0 0 0
SMALL
GASTEIGER

@<TRIPOS>ATOM
      1 C          65.9939   93.8634   12.1379 C.ar    1  UNL1        0.0529
      2 C          66.3511   93.7809   13.5924 C.ar    1  UNL1        0.0042
      3 C          65.9278   92.5915   14.4024 C.ar    1  UNL1       -0.0044
      4 C          65.1473   91.4845   13.7578 C.ar    1  UNL1       -0.0239
      5 C          64.7901   91.5670   12.3033 C.ar    1  UNL1        0.0005
      6 C          65.2134   92.7564   11.4933 C.ar    1  UNL1        0.0022
      7 C          64.0096   90.4601   11.6587 C.3     1  UNL1        0.1345
      8 O          63.6524   90.5426   10.2042 O.3     1  UNL1       -0.3800
      9 C          63.5862   89.2706   12.4687 C.3     1  UNL1        0.0565
     10 C          63.9434   89.1882   13.9231 C.3     1  UNL1        0.0096
     11 C          64.7239   90.2951   14.5677 C.3     1  UNL1        0.0263
     12 H          63.1517   89.7520    9.9489 H       1  UNL1        0.2108
     13 C          62.8057   88.1636   11.8241 C.3     1  UNL1        0.1121
     14 C          61.7739   88.3236   10.7472 C.ar    1  UNL1       -0.0002
     15 C          61.2434   89.5337   10.0372 C.ar    1  UNL1       -0.0024
     16 C          60.1894   89.3815    8.9809 C.ar    1  UNL1       -0.0003
     17 C          59.6660   88.0192    8.6345 C.ar    1  UNL1        0.0000
     18 C          60.1965   86.8090    9.3444 C.ar    1  UNL1        0.0012
     19 C          61.2505   86.9612   10.4007 C.ar    1  UNL1        0.0152
     20 C          61.9588   85.9594   11.2636 C.ar    1  UNL1        0.0804
     21 C          62.0731   84.4981   11.5827 C.ar    1  UNL1        0.1177
     22 N          63.1049   84.3382   12.6597 N.ar    1  UNL1       -0.2223
     23 C          63.6283   85.7006   13.0061 C.ar    1  UNL1        0.1788
     24 N          62.9200   86.7025   12.1433 N.ar    1  UNL1       -0.3069
     25 N          65.7826   96.3901   11.5709 N.am    1  UNL1       -0.3253
     26 C          66.4173   95.0529   11.3279 C.2     1  UNL1        0.2427
     27 O          67.4753   94.9051   10.2749 O.2     1  UNL1       -0.2704
     28 H          66.0604   97.1707   11.0393 H       1  UNL1        0.1453
     29 H          65.0881   96.4870   12.2620 H       1  UNL1        0.1453
@<TRIPOS>BOND
     1    25    26   am
     2    26    27    2
     3    26     1    1
     4     1     2   ar
     5     2     3   ar
     6     3     4   ar
     7     4     5   ar
     8     5     6   ar
     9     5     7    1
    10     7     8    1
    11     7     9    1
    12     9    13    1
    13    13    14    1
    14    14    15   ar
    15    15    16   ar
    16    16    17   ar
    17    17    18   ar
    18    18    19   ar
    19    19    20    1
    20    20    21   ar
    21    21    22   ar
    22    22    23   ar
    23    23    24   ar
    24     9    10    1
    25    10    11    1
    26     6     1   ar
    27    13    24    1
    28    11     4    1
    29    19    14   ar
    30    24    20   ar
    31    25    28    1
    32    25    29    1
    33     8    12    1
@<TRIPOS>MOLECULE
*****
 29 33 0 0 0
SMALL
GASTEIGER

@<TRIPOS>ATOM
      1 C          65.8301   92.4355   14.6484 C.ar    1  UNL1        0.0529
      2 C          66.1311   93.4757   13.6105 C.ar    1  UNL1        0.0042
      3 C          65.6187   93.3088   12.2107 C.ar    1  UNL1       -0.0044
      4 C          64.8053   92.1015   11.8488 C.ar    1  UNL1       -0.0239
      5 C          64.5043   91.0613   12.8868 C.ar    1  UNL1        0.0005
      6 C          65.0167   91.2282   14.2866 C.ar    1  UNL1        0.0022
      7 C          63.6909   89.8541   12.5249 C.3     1  UNL1        0.1345
      8 O          63.3899   88.8138   13.5628 O.3     1  UNL1       -0.3800
      9 C          63.1784   89.6871   11.1250 C.3     1  UNL1        0.0565
     10 C          63.4794   90.7273   10.0871 C.3     1  UNL1        0.0096
     11 C          64.2928   91.9345   10.4490 C.3     1  UNL1        0.0263
     12 H          62.8583   88.1059   13.1664 H       1  UNL1        0.2108
     13 C          62.3650   88.4798   10.7631 C.3     1  UNL1        0.1121
     14 C          61.2762   88.4269    9.7327 C.ar    1  UNL1       -0.0002
     15 C          60.7071   89.4717    8.8193 C.ar    1  UNL1       -0.0024
     16 C          59.5976   89.1176    7.8740 C.ar    1  UNL1       -0.0003
     17 C          59.0572   87.7187    7.8422 C.ar    1  UNL1        0.0000
     18 C          59.6263   86.6738    8.7556 C.ar    1  UNL1        0.0012
     19 C          60.7359   87.0279    9.7008 C.ar    1  UNL1        0.0152
     20 C          61.4907   86.2164   10.7116 C.ar    1  UNL1        0.0804
     21 C          61.6232   84.8501   11.3166 C.ar    1  UNL1        0.1177
     22 N          62.7119   84.9032   12.3471 N.ar    1  UNL1       -0.2223
     23 C          63.2523   86.3021   12.3789 C.ar    1  UNL1        0.1788
     24 N          62.4975   87.1137   11.3682 N.ar    1  UNL1       -0.3069
     25 N          65.3780   92.7516   17.1873 N.am    1  UNL1       -0.3253
     26 C          66.3426   92.6025   16.0483 C.2     1  UNL1        0.2427
     27 O          67.8197   92.6203   16.3092 O.2     1  UNL1       -0.2704
     28 H          65.7144   92.8612   18.1061 H       1  UNL1        0.1453
     29 H          64.4086   92.7399   17.0161 H       1  UNL1        0.1453
@<TRIPOS>BOND
     1    25    26   am
     2    26    27    2
     3    26     1    1
     4     1     2   ar
     5     2     3   ar
     6     3     4   ar
     7     4     5   ar
     8     5     6   ar
     9     5     7    1
    10     7     8    1
    11     7     9    1
    12     9    13    1
    13    13    14    1
    14    14    15   ar
    15    15    16   ar
    16    16    17   ar
    17    17    18   ar
    18    18    19   ar
    19    19    20    1
    20    20    21   ar
    21    21    22   ar
    22    22    23   ar
    23    23    24   ar
    24     9    10    1
    25    10    11    1
    26     6     1   ar
    27    13    24    1
    28    11     4    1
    29    19    14   ar
    30    24    20   ar
    31    25    28    1
    32    25    29    1
    33     8    12    1
@<TRIPOS>MOLECULE
*****
 29 33 0 0 0
SMALL
GASTEIGER

@<TRIPOS>ATOM
      1 C          62.9384   81.5798   12.7004 C.ar    1  UNL1        0.0529
      2 C          63.7145   80.9775   11.5669 C.ar    1  UNL1        0.0042
      3 C          63.9666   81.7763   10.3225 C.ar    1  UNL1       -0.0044
      4 C          63.4425   83.1774   10.2118 C.ar    1  UNL1       -0.0239
      5 C          62.6664   83.7797   11.3453 C.ar    1  UNL1        0.0005
      6 C          62.4143   82.9809   12.5896 C.ar    1  UNL1        0.0022
      7 C          62.1423   85.1808   11.2345 C.3     1  UNL1        0.1345
      8 O          61.3662   85.7830   12.3680 O.3     1  UNL1       -0.3800
      9 C          62.3944   85.9796    9.9901 C.3     1  UNL1        0.0565
     10 C          63.1705   85.3773    8.8567 C.3     1  UNL1        0.0096
     11 C          63.6946   83.9762    8.9675 C.3     1  UNL1        0.0263
     12 H          61.1031   86.6872   12.1354 H       1  UNL1        0.2108
     13 C          61.8703   87.3807    9.8793 C.3     1  UNL1        0.1121
     14 C          60.8634   87.8690    8.8805 C.ar    1  UNL1       -0.0002
     15 C          60.1274   87.1724    7.7746 C.ar    1  UNL1       -0.0024
     16 C          59.1600   87.9363    6.9200 C.ar    1  UNL1       -0.0003
     17 C          58.9285   89.3968    7.1713 C.ar    1  UNL1        0.0000
     18 C          59.6644   90.0935    8.2772 C.ar    1  UNL1        0.0012
     19 C          60.6319   89.3296    9.1318 C.ar    1  UNL1        0.0152
     20 C          61.4957   89.7439   10.2859 C.ar    1  UNL1        0.0804
     21 C          61.8865   90.9028   11.1546 C.ar    1  UNL1        0.1177
     22 N          62.8935   90.4144   12.1534 N.ar    1  UNL1       -0.2223
     23 C          63.1250   88.9539   11.9021 C.ar    1  UNL1        0.1788
     24 N          62.2611   88.5395   10.7480 N.ar    1  UNL1       -0.3069
     25 N          61.3209   80.7707   14.5657 N.am    1  UNL1       -0.3253
     26 C          62.6863   80.7809   13.9448 C.2     1  UNL1        0.2427
     27 O          63.7996   79.9923   14.5681 O.2     1  UNL1       -0.2704
     28 H          61.1555   80.2464   15.3824 H       1  UNL1        0.1453
     29 H          60.5902   81.2883   14.1566 H       1  UNL1        0.1453
@<TRIPOS>BOND
     1    25    26   am
     2    26    27    2
     3    26     1    1
     4     1     2   ar
     5     2     3   ar
     6     3     4   ar
     7     4     5   ar
     8     5     6   ar
     9     5     7    1
    10     7     8    1
    11     7     9    1
    12     9    13    1
    13    13    14    1
    14    14    15   ar
    15    15    16   ar
    16    16    17   ar
    17    17    18   ar
    18    18    19   ar
    19    19    20    1
    20    20    21   ar
    21    21    22   ar
    22    22    23   ar
    23    23    24   ar
    24     9    10    1
    25    10    11    1
    26     6     1   ar
    27    13    24    1
    28    11     4    1
    29    19    14   ar
    30    24    20   ar
    31    25    28    1
    32    25    29    1
    33     8    12    1
@<TRIPOS>MOLECULE
*****
 29 33 0 0 0
SMALL
GASTEIGER

@<TRIPOS>ATOM
      1 C          62.7451   79.9348   11.5453 C.ar    1  UNL1        0.0529
      2 C          62.5804   79.5897   12.9957 C.ar    1  UNL1        0.0042
      3 C          62.4688   80.6811   14.0185 C.ar    1  UNL1       -0.0044
      4 C          62.5218   82.1179   13.5908 C.ar    1  UNL1       -0.0239
      5 C          62.6865   82.4631   12.1404 C.ar    1  UNL1        0.0005
      6 C          62.7981   81.3716   11.1176 C.ar    1  UNL1        0.0022
      7 C          62.7395   83.8999   11.7127 C.3     1  UNL1        0.1345
      8 O          62.9042   84.2451   10.2623 O.3     1  UNL1       -0.3800
      9 C          62.6278   84.9915   12.7355 C.3     1  UNL1        0.0565
     10 C          62.4632   84.6462   14.1858 C.3     1  UNL1        0.0096
     11 C          62.4101   83.2095   14.6135 C.3     1  UNL1        0.0263
     12 H          62.9190   85.2094   10.1591 H       1  UNL1        0.2108
     13 C          62.6809   86.4283   12.3078 C.3     1  UNL1        0.1121
     14 C          63.3801   87.5390   13.0339 C.ar    1  UNL1       -0.0002
     15 C          64.1769   87.5622   14.3046 C.ar    1  UNL1       -0.0024
     16 C          64.7688   88.8502   14.7951 C.ar    1  UNL1       -0.0003
     17 C          64.5641   90.1149   14.0151 C.ar    1  UNL1        0.0000
     18 C          63.7674   90.0917   12.7444 C.ar    1  UNL1        0.0012
     19 C          63.1754   88.8038   12.2538 C.ar    1  UNL1        0.0152
     20 C          62.3496   88.4746   11.0456 C.ar    1  UNL1        0.0804
     21 C          61.7126   89.0529    9.8168 C.ar    1  UNL1        0.1177
     22 N          61.0134   87.9420    9.0907 N.ar    1  UNL1       -0.2223
     23 C          61.2181   86.6773    9.8708 C.ar    1  UNL1        0.1788
     24 N          62.0439   87.0065   11.0790 N.ar    1  UNL1       -0.3069
     25 N          62.7946   79.1755    9.0611 N.am    1  UNL1       -0.3253
     26 C          62.8568   78.8432   10.5225 C.2     1  UNL1        0.2427
     27 O          63.0306   77.4194   10.9612 O.2     1  UNL1       -0.2704
     28 H          62.8679   78.4591    8.3898 H       1  UNL1        0.1453
     29 H          62.6805   80.1100    8.7732 H       1  UNL1        0.1453
@<TRIPOS>BOND
     1    25    26   am
     2    26    27    2
     3    26     1    1
     4     1     2   ar
     5     2     3   ar
     6     3     4   ar
     7     4     5   ar
     8     5     6   ar
     9     5     7    1
    10     7     8    1
    11     7     9    1
    12     9    13    1
    13    13    14    1
    14    14    15   ar
    15    15    16   ar
    16    16    17   ar
    17    17    18   ar
    18    18    19   ar
    19    19    20    1
    20    20    21   ar
    21    21    22   ar
    22    22    23   ar
    23    23    24   ar
    24     9    10    1
    25    10    11    1
    26     6     1   ar
    27    13    24    1
    28    11     4    1
    29    19    14   ar
    30    24    20   ar
    31    25    28    1
    32    25    29    1
    33     8    12    1
@<TRIPOS>MOLECULE
*****
 29 33 0 0 0
SMALL
GASTEIGER

@<TRIPOS>ATOM
      1 C          62.8298   84.0635   12.4903 C.ar    1  UNL1        0.0529
      2 C          62.0049   84.2238   11.2478 C.ar    1  UNL1        0.0042
      3 C          61.7732   85.5894   10.6723 C.ar    1  UNL1       -0.0044
      4 C          62.3664   86.7949   11.3393 C.ar    1  UNL1       -0.0239
      5 C          63.1913   86.6346   12.5818 C.ar    1  UNL1        0.0005
      6 C          63.4231   85.2690   13.1573 C.ar    1  UNL1        0.0022
      7 C          63.7846   87.8401   13.2489 C.3     1  UNL1        0.1345
      8 O          64.6095   87.6798   14.4914 O.3     1  UNL1       -0.3800
      9 C          63.5529   89.2059   12.6734 C.3     1  UNL1        0.0565
     10 C          62.7280   89.3660   11.4310 C.3     1  UNL1        0.0096
     11 C          62.1347   88.1606   10.7639 C.3     1  UNL1        0.0263
     12 H          64.9146   88.5503   14.7914 H       1  UNL1        0.2108
     13 C          64.1462   90.4113   13.3405 C.3     1  UNL1        0.1121
     14 C          64.9257   91.4994   12.6634 C.ar    1  UNL1       -0.0002
     15 C          65.3231   91.7077   11.2321 C.ar    1  UNL1       -0.0024
     16 C          66.1203   92.9174   10.8436 C.ar    1  UNL1       -0.0003
     17 C          66.5200   93.9189   11.8863 C.ar    1  UNL1        0.0000
     18 C          66.1225   93.7106   13.3176 C.ar    1  UNL1        0.0012
     19 C          65.3253   92.5009   13.7061 C.ar    1  UNL1        0.0152
     20 C          64.7928   92.0317   15.0276 C.ar    1  UNL1        0.0804
     21 C          64.7108   92.3607   16.4889 C.ar    1  UNL1        0.1177
     22 N          63.9313   91.2725   17.1659 N.ar    1  UNL1       -0.2223
     23 C          63.5316   90.2711   16.1231 C.ar    1  UNL1        0.1788
     24 N          64.0641   90.7403   14.8016 N.ar    1  UNL1       -0.3069
     25 N          63.3176   82.5365   14.5349 N.am    1  UNL1       -0.3253
     26 C          63.0615   82.6977   13.0658 C.2     1  UNL1        0.2427
     27 O          63.0370   81.4933   12.1721 O.2     1  UNL1       -0.2704
     28 H          63.4697   81.6401   14.9126 H       1  UNL1        0.1453
     29 H          63.3337   83.3270   15.1215 H       1  UNL1        0.1453
@<TRIPOS>BOND
     1    25    26   am
     2    26    27    2
     3    26     1    1
     4     1     2   ar
     5     2     3   ar
     6     3     4   ar
     7     4     5   ar
     8     5     6   ar
     9     5     7    1
    10     7     8    1
    11     7     9    1
    12     9    13    1
    13    13    14    1
    14    14    15   ar
    15    15    16   ar
    16    16    17   ar
    17    17    18   ar
    18    18    19   ar
    19    19    20    1
    20    20    21   ar
    21    21    22   ar
    22    22    23   ar
    23    23    24   ar
    24     9    10    1
    25    10    11    1
    26     6     1   ar
    27    13    24    1
    28    11     4    1
    29    19    14   ar
    30    24    20   ar
    31    25    28    1
    32    25    29    1
    33     8    12    1
@<TRIPOS>MOLECULE
*****
 29 33 0 0 0
SMALL
GASTEIGER

@<TRIPOS>ATOM
      1 C          62.7255   79.9001   11.5509 C.ar    1  UNL1        0.0529
      2 C          62.5034   79.5134   12.9831 C.ar    1  UNL1        0.0042
      3 C          62.3731   80.5747   14.0350 C.ar    1  UNL1       -0.0044
      4 C          62.4649   82.0228   13.6547 C.ar    1  UNL1       -0.0239
      5 C          62.6870   82.4095   12.2225 C.ar    1  UNL1        0.0005
      6 C          62.8173   81.3482   11.1706 C.ar    1  UNL1        0.0022
      7 C          62.7788   83.8576   11.8422 C.3     1  UNL1        0.1345
      8 O          63.0009   84.2443   10.4100 O.3     1  UNL1       -0.3800
      9 C          62.6485   84.9190   12.8941 C.3     1  UNL1        0.0565
     10 C          62.4264   84.5323   14.3262 C.3     1  UNL1        0.0096
     11 C          62.3346   83.0842   14.7065 C.3     1  UNL1        0.0263
     12 H          63.0352   85.2110   10.3377 H       1  UNL1        0.2108
     13 C          62.7403   86.3671   12.5138 C.3     1  UNL1        0.1121
     14 C          62.0802   87.0116   11.3310 C.ar    1  UNL1       -0.0002
     15 C          61.1978   86.4606   10.2504 C.ar    1  UNL1       -0.0024
     16 C          60.6755   87.3658    9.1745 C.ar    1  UNL1       -0.0003
     17 C          61.0355   88.8220    9.1791 C.ar    1  UNL1        0.0000
     18 C          61.9179   89.3729   10.2597 C.ar    1  UNL1        0.0012
     19 C          62.4402   88.4677   11.3357 C.ar    1  UNL1        0.0152
     20 C          63.3228   88.7232   12.5214 C.ar    1  UNL1        0.0804
     21 C          64.0908   89.7811   13.2570 C.ar    1  UNL1        0.1177
     22 N          64.7509   89.1365   14.4398 N.ar    1  UNL1       -0.2223
     23 C          64.3909   87.6804   14.4352 C.ar    1  UNL1        0.1788
     24 N          63.5083   87.4249   13.2495 N.ar    1  UNL1       -0.3069
     25 N          62.7994   79.2108    9.0469 N.am    1  UNL1       -0.3253
     26 C          62.8558   78.8386   10.4989 C.2     1  UNL1        0.2427
     27 O          63.0424   77.4051   10.8991 O.2     1  UNL1       -0.2704
     28 H          62.8849   78.5142    8.3566 H       1  UNL1        0.1453
     29 H          62.6768   80.1517    8.7843 H       1  UNL1        0.1453
@<TRIPOS>BOND
     1    25    26   am
     2    26    27    2
     3    26     1    1
     4     1     2   ar
     5     2     3   ar
     6     3     4   ar
     7     4     5   ar
     8     5     6   ar
     9     5     7    1
    10     7     8    1
    11     7     9    1
    12     9    13    1
    13    13    14    1
    14    14    15   ar
    15    15    16   ar
    16    16    17   ar
    17    17    18   ar
    18    18    19   ar
    19    19    20    1
    20    20    21   ar
    21    21    22   ar
    22    22    23   ar
    23    23    24   ar
    24     9    10    1
    25    10    11    1
    26     6     1   ar
    27    13    24    1
    28    11     4    1
    29    19    14   ar
    30    24    20   ar
    31    25    28    1
    32    25    29    1
    33     8    12    1
