@<TRIPOS>MOLECULE
*****
 31 34 0 0 0
SMALL
GASTEIGER

@<TRIPOS>ATOM
      1 N          61.4754   87.6446   11.0321 N.3     1  UNL1       -0.2641
      2 C          62.1699   86.4399   10.4698 C.3     1  UNL1        0.0981
      3 C          62.4779   86.3680    9.0036 C.3     1  UNL1        0.0224
      4 C          63.1724   85.1632    8.4412 C.3     1  UNL1        0.0065
      5 C          63.5588   84.0303    9.3451 C.3     1  UNL1        0.0277
      6 C          63.2508   84.1022   10.8114 C.ar    1  UNL1       -0.0073
      7 C          63.6373   82.9692   11.7154 C.ar    1  UNL1       -0.0015
      8 C          63.3292   83.0410   13.1816 C.ar    1  UNL1        0.0203
      9 C          62.6348   84.2458   13.7439 C.ar    1  UNL1        0.0985
     10 N          62.2483   85.3787   12.8400 N.ar    1  UNL1       -0.2471
     11 C          62.5563   85.3069   11.3737 C.ar    1  UNL1        0.0695
     12 C          60.1415   88.0632   10.4886 C.3     1  UNL1        0.0986
     13 C          59.3559   89.1910    6.7656 C.3     1  UNL1        0.0275
     14 C          59.4302   88.3516    8.0065 C.2     1  UNL1       -0.0314
     15 C          60.0672   88.9026    9.2477 C.2     1  UNL1       -0.0159
     16 C          58.8676   86.9611    8.0062 C.3     1  UNL1        0.0877
     17 N          59.6412   85.8392    7.3795 N.3     1  UNL1       -0.3177
     18 H          59.7118   85.9949    6.3739 H       1  UNL1        0.1191
     19 H          59.1612   84.9562    7.5539 H       1  UNL1        0.1191
     20 C          62.1148   88.4308   12.1380 C.3     1  UNL1        0.0888
     21 C          62.9265   89.6512   11.8184 C.3     1  UNL1        0.0748
     22 C          63.8287   90.2455   12.8590 C.3     1  UNL1        0.0432
     23 C          64.6404   91.4658   12.5394 C.ar    1  UNL1       -0.0234
     24 C          65.5426   92.0601   13.5800 C.ar    1  UNL1       -0.0045
     25 C          66.3543   93.2803   13.2604 C.ar    1  UNL1       -0.0003
     26 C          66.2637   93.9063   11.9002 C.ar    1  UNL1       -0.0003
     27 C          65.3615   93.3120   10.8597 C.ar    1  UNL1       -0.0032
     28 C          64.5498   92.0917   11.1793 C.ar    1  UNL1       -0.0103
     29 C          63.6476   91.4974   10.1387 C.3     1  UNL1        0.0953
     30 N          62.8359   90.2771   10.4583 N.3     1  UNL1       -0.2934
     31 H          63.1056   89.5596    9.7854 H       1  UNL1        0.1236
@<TRIPOS>BOND
     1    13    14    1
     2    14    15    2
     3    15    12    1
     4    12     1    1
     5     1    20    1
     6    21    20    1
     7    21    22    1
     8    22    23    1
     9    23    24   ar
    10    24    25   ar
    11    25    26   ar
    12    26    27   ar
    13    27    28   ar
    14    28    29    1
    15    29    30    1
    16     2     1    1
    17     2     3    1
    18     3     4    1
    19     4     5    1
    20     5     6    1
    21     6     7   ar
    22     7     8   ar
    23     8     9   ar
    24     9    10   ar
    25    10    11   ar
    26    14    16    1
    27    16    17    1
    28    30    21    1
    29    11     2    1
    30    28    23   ar
    31    11     6   ar
    32    30    31    1
    33    17    18    1
    34    17    19    1
@<TRIPOS>MOLECULE
*****
 31 34 0 0 0
SMALL
GASTEIGER

@<TRIPOS>ATOM
      1 N          66.5826   92.0391   12.6179 N.3     1  UNL1       -0.2641
      2 C          67.1147   92.5665   11.3184 C.3     1  UNL1        0.0981
      3 C          67.8885   91.6644   10.4034 C.3     1  UNL1        0.0224
      4 C          68.4207   92.1919    9.1040 C.3     1  UNL1        0.0065
      5 C          68.1791   93.6215    8.7196 C.3     1  UNL1        0.0277
      6 C          67.4053   94.5236    9.6346 C.ar    1  UNL1       -0.0073
      7 C          67.1637   95.9533    9.2502 C.ar    1  UNL1       -0.0015
      8 C          66.3899   96.8554   10.1653 C.ar    1  UNL1        0.0203
      9 C          65.8577   96.3280   11.4647 C.ar    1  UNL1        0.0985
     10 N          66.0993   94.8984   11.8491 N.ar    1  UNL1       -0.2471
     11 C          66.8731   93.9961   10.9341 C.ar    1  UNL1        0.0695
     12 C          67.5295   91.6612   13.7181 C.3     1  UNL1        0.0986
     13 C          69.4375   94.1203   16.1803 C.3     1  UNL1        0.0275
     14 C          68.4496   93.1168   15.6635 C.2     1  UNL1       -0.0314
     15 C          68.5174   92.6647   14.2350 C.2     1  UNL1       -0.0159
     16 C          67.3938   92.5655   16.5754 C.3     1  UNL1        0.0877
     17 N          65.9811   93.0589   16.4717 N.3     1  UNL1       -0.3177
     18 H          65.9435   94.0418   16.7417 H       1  UNL1        0.1191
     19 H          65.3838   92.5127   17.0924 H       1  UNL1        0.1191
     20 C          65.1034   91.8894   12.8171 C.3     1  UNL1        0.0888
     21 C          64.5791   90.9767   13.8859 C.3     1  UNL1        0.0748
     22 C          64.7325   89.4912   13.7452 C.3     1  UNL1        0.0432
     23 C          64.2082   88.5785   14.8139 C.ar    1  UNL1       -0.0234
     24 C          64.3616   87.0930   14.6732 C.ar    1  UNL1       -0.0045
     25 C          63.8373   86.1804   15.7419 C.ar    1  UNL1       -0.0003
     26 C          63.1597   86.7532   16.9513 C.ar    1  UNL1       -0.0003
     27 C          63.0062   88.2387   17.0920 C.ar    1  UNL1       -0.0032
     28 C          63.5305   89.1513   16.0233 C.ar    1  UNL1       -0.0103
     29 C          63.3771   90.6369   16.1640 C.3     1  UNL1        0.0953
     30 N          63.9014   91.5495   15.0953 N.3     1  UNL1       -0.2934
     31 H          64.5746   92.1712   15.5432 H       1  UNL1        0.1236
@<TRIPOS>BOND
     1    13    14    1
     2    14    15    2
     3    15    12    1
     4    12     1    1
     5     1    20    1
     6    21    20    1
     7    21    22    1
     8    22    23    1
     9    23    24   ar
    10    24    25   ar
    11    25    26   ar
    12    26    27   ar
    13    27    28   ar
    14    28    29    1
    15    29    30    1
    16     2     1    1
    17     2     3    1
    18     3     4    1
    19     4     5    1
    20     5     6    1
    21     6     7   ar
    22     7     8   ar
    23     8     9   ar
    24     9    10   ar
    25    10    11   ar
    26    14    16    1
    27    16    17    1
    28    30    21    1
    29    11     2    1
    30    28    23   ar
    31    11     6   ar
    32    30    31    1
    33    17    18    1
    34    17    19    1
@<TRIPOS>MOLECULE
*****
 31 34 0 0 0
SMALL
GASTEIGER

@<TRIPOS>ATOM
      1 N          62.4530   87.2101   11.7148 N.3     1  UNL1       -0.2641
      2 C          62.7408   88.6563   11.4397 C.3     1  UNL1        0.0981
      3 C          62.3021   89.2753   10.1457 C.3     1  UNL1        0.0224
      4 C          62.5899   90.7215    9.8706 C.3     1  UNL1        0.0065
      5 C          63.3163   91.5486   10.8894 C.3     1  UNL1        0.0277
      6 C          63.7549   90.9296   12.1833 C.ar    1  UNL1       -0.0073
      7 C          64.4814   91.7568   13.2022 C.ar    1  UNL1       -0.0015
      8 C          64.9201   91.1378   14.4962 C.ar    1  UNL1        0.0203
      9 C          64.6323   89.6916   14.7713 C.ar    1  UNL1        0.0985
     10 N          63.9059   88.8644   13.7525 N.ar    1  UNL1       -0.2471
     11 C          63.4672   89.4834   12.4585 C.ar    1  UNL1        0.0695
     12 C          61.2697   86.5460   11.0755 C.3     1  UNL1        0.0986
     13 C          60.7101   85.5050    7.2870 C.3     1  UNL1        0.0275
     14 C          60.5541   86.2127    8.6003 C.2     1  UNL1       -0.0314
     15 C          61.4257   85.8382    9.7621 C.2     1  UNL1       -0.0159
     16 C          59.5264   87.2948    8.7517 C.3     1  UNL1        0.0877
     17 N          58.5988   87.6123    7.6165 N.3     1  UNL1       -0.3177
     18 H          59.1341   87.9932    6.8363 H       1  UNL1        0.1191
     19 H          57.9090   88.2985    7.9228 H       1  UNL1        0.1191
     20 C          63.3486   86.4279   12.6292 C.3     1  UNL1        0.0888
     21 C          62.9804   85.0280   13.0228 C.3     1  UNL1        0.0748
     22 C          63.2165   83.8943   12.0694 C.3     1  UNL1        0.0432
     23 C          62.8483   82.4944   12.4629 C.ar    1  UNL1       -0.0234
     24 C          63.0844   81.3607   11.5095 C.ar    1  UNL1       -0.0045
     25 C          62.7162   79.9609   11.9031 C.ar    1  UNL1       -0.0003
     26 C          62.1120   79.6947   13.2499 C.ar    1  UNL1       -0.0003
     27 C          61.8759   80.8285   14.2033 C.ar    1  UNL1       -0.0032
     28 C          62.2441   82.2283   13.8098 C.ar    1  UNL1       -0.0103
     29 C          62.0080   83.3621   14.7632 C.3     1  UNL1        0.0953
     30 N          62.3762   84.7619   14.3696 N.3     1  UNL1       -0.2934
     31 H          63.0446   85.0967   15.0636 H       1  UNL1        0.1236
@<TRIPOS>BOND
     1    13    14    1
     2    14    15    2
     3    15    12    1
     4    12     1    1
     5     1    20    1
     6    21    20    1
     7    21    22    1
     8    22    23    1
     9    23    24   ar
    10    24    25   ar
    11    25    26   ar
    12    26    27   ar
    13    27    28   ar
    14    28    29    1
    15    29    30    1
    16     2     1    1
    17     2     3    1
    18     3     4    1
    19     4     5    1
    20     5     6    1
    21     6     7   ar
    22     7     8   ar
    23     8     9   ar
    24     9    10   ar
    25    10    11   ar
    26    14    16    1
    27    16    17    1
    28    30    21    1
    29    11     2    1
    30    28    23   ar
    31    11     6   ar
    32    30    31    1
    33    17    18    1
    34    17    19    1
@<TRIPOS>MOLECULE
*****
 31 34 0 0 0
SMALL
GASTEIGER

@<TRIPOS>ATOM
      1 N          63.7691   90.2122   13.2653 N.3     1  UNL1       -0.2641
      2 C          64.6010   91.3586   12.7716 C.3     1  UNL1        0.0981
      3 C          64.5191   91.7804   11.3345 C.3     1  UNL1        0.0224
      4 C          65.3510   92.9267   10.8407 C.3     1  UNL1        0.0065
      5 C          66.2648   93.6513   11.7840 C.3     1  UNL1        0.0277
      6 C          66.3467   93.2295   13.2211 C.ar    1  UNL1       -0.0073
      7 C          67.2605   93.9541   14.1646 C.ar    1  UNL1       -0.0015
      8 C          67.3424   93.5323   15.6017 C.ar    1  UNL1        0.0203
      9 C          66.5105   92.3859   16.0955 C.ar    1  UNL1        0.0985
     10 N          65.5967   91.6614   15.1521 N.ar    1  UNL1       -0.2471
     11 C          65.5148   92.0831   13.7149 C.ar    1  UNL1        0.0695
     12 C          64.3644   89.2015   14.2002 C.3     1  UNL1        0.0986
     13 C          62.9302   87.0996   17.2457 C.3     1  UNL1        0.0275
     14 C          63.6316   87.4406   15.9644 C.2     1  UNL1       -0.0314
     15 C          63.6630   88.8604   15.4815 C.2     1  UNL1       -0.0159
     16 C          64.3016   86.3619   15.1660 C.3     1  UNL1        0.0877
     17 N          63.5557   85.6726   14.0622 N.3     1  UNL1       -0.3177
     18 H          62.7824   85.1374   14.4570 H       1  UNL1        0.1191
     19 H          64.1870   85.0430   13.5668 H       1  UNL1        0.1191
     20 C          62.3418   90.0766   12.8243 C.3     1  UNL1        0.0888
     21 C          61.9701   89.0550   11.7907 C.3     1  UNL1        0.0748
     22 C          61.0577   89.4293   10.6605 C.3     1  UNL1        0.0432
     23 C          60.6859   88.4078    9.6269 C.ar    1  UNL1       -0.0234
     24 C          59.7735   88.7820    8.4967 C.ar    1  UNL1       -0.0045
     25 C          59.4018   87.7605    7.4632 C.ar    1  UNL1       -0.0003
     26 C          59.9424   86.3646    7.5599 C.ar    1  UNL1       -0.0003
     27 C          60.8548   85.9904    8.6901 C.ar    1  UNL1       -0.0032
     28 C          61.2265   87.0119    9.7236 C.ar    1  UNL1       -0.0103
     29 C          62.1389   86.6377   10.8539 C.3     1  UNL1        0.0953
     30 N          62.5107   87.6592   11.8874 N.3     1  UNL1       -0.2934
     31 H          63.5277   87.7357   11.8733 H       1  UNL1        0.1236
@<TRIPOS>BOND
     1    13    14    1
     2    14    15    2
     3    15    12    1
     4    12     1    1
     5     1    20    1
     6    21    20    1
     7    21    22    1
     8    22    23    1
     9    23    24   ar
    10    24    25   ar
    11    25    26   ar
    12    26    27   ar
    13    27    28   ar
    14    28    29    1
    15    29    30    1
    16     2     1    1
    17     2     3    1
    18     3     4    1
    19     4     5    1
    20     5     6    1
    21     6     7   ar
    22     7     8   ar
    23     8     9   ar
    24     9    10   ar
    25    10    11   ar
    26    14    16    1
    27    16    17    1
    28    30    21    1
    29    11     2    1
    30    28    23   ar
    31    11     6   ar
    32    30    31    1
    33    17    18    1
    34    17    19    1
@<TRIPOS>MOLECULE
*****
 31 34 0 0 0
SMALL
GASTEIGER

@<TRIPOS>ATOM
      1 N          63.9256   90.1232   13.9199 N.3     1  UNL1       -0.2641
      2 C          64.8718   91.2765   14.0776 C.3     1  UNL1        0.0981
      3 C          65.4633   91.5829   15.4215 C.3     1  UNL1        0.0224
      4 C          66.4095   92.7361   15.5791 C.3     1  UNL1        0.0065
      5 C          66.7641   93.5829   14.3929 C.3     1  UNL1        0.0277
      6 C          66.1725   93.2765   13.0490 C.ar    1  UNL1       -0.0073
      7 C          66.5271   94.1233   11.8627 C.ar    1  UNL1       -0.0015
      8 C          65.9355   93.8169   10.5188 C.ar    1  UNL1        0.0203
      9 C          64.9893   92.6637   10.3612 C.ar    1  UNL1        0.0985
     10 N          64.6347   91.8169   11.5474 N.ar    1  UNL1       -0.2471
     11 C          65.2263   92.1233   12.8914 C.ar    1  UNL1        0.0695
     12 C          64.2401   88.8025   14.5575 C.3     1  UNL1        0.0986
     13 C          62.8477   86.5809   17.5367 C.3     1  UNL1        0.0275
     14 C          63.5140   86.9704   16.2505 C.2     1  UNL1       -0.0314
     15 C          63.5738   88.4129   15.8437 C.2     1  UNL1       -0.0159
     16 C          64.1204   85.9174   15.3711 C.3     1  UNL1        0.0877
     17 N          63.3205   85.3260   14.2484 N.3     1  UNL1       -0.3177
     18 H          62.5363   84.7979   14.6311 H       1  UNL1        0.1191
     19 H          63.9137   84.7039   13.6992 H       1  UNL1        0.1191
     20 C          62.6649   90.2908   13.1246 C.3     1  UNL1        0.0888
     21 C          62.2773   89.2592   12.1069 C.3     1  UNL1        0.0748
     22 C          61.3702   89.6297   10.9713 C.3     1  UNL1        0.0432
     23 C          60.9827   88.5980    9.9536 C.ar    1  UNL1       -0.0234
     24 C          60.0756   88.9686    8.8179 C.ar    1  UNL1       -0.0045
     25 C          59.6881   87.9369    7.8003 C.ar    1  UNL1       -0.0003
     26 C          60.2077   86.5348    7.9184 C.ar    1  UNL1       -0.0003
     27 C          61.1148   86.1642    9.0541 C.ar    1  UNL1       -0.0032
     28 C          61.5023   87.1959   10.0717 C.ar    1  UNL1       -0.0103
     29 C          62.4094   86.8254   11.2074 C.3     1  UNL1        0.0953
     30 N          62.7969   87.8570   12.2250 N.3     1  UNL1       -0.2934
     31 H          63.8150   87.9180   12.2096 H       1  UNL1        0.1236
@<TRIPOS>BOND
     1    13    14    1
     2    14    15    2
     3    15    12    1
     4    12     1    1
     5     1    20    1
     6    21    20    1
     7    21    22    1
     8    22    23    1
     9    23    24   ar
    10    24    25   ar
    11    25    26   ar
    12    26    27   ar
    13    27    28   ar
    14    28    29    1
    15    29    30    1
    16     2     1    1
    17     2     3    1
    18     3     4    1
    19     4     5    1
    20     5     6    1
    21     6     7   ar
    22     7     8   ar
    23     8     9   ar
    24     9    10   ar
    25    10    11   ar
    26    14    16    1
    27    16    17    1
    28    30    21    1
    29    11     2    1
    30    28    23   ar
    31    11     6   ar
    32    30    31    1
    33    17    18    1
    34    17    19    1
@<TRIPOS>MOLECULE
*****
 31 34 0 0 0
SMALL
GASTEIGER

@<TRIPOS>ATOM
      1 N          61.6003   87.4824   11.2496 N.3     1  UNL1       -0.2641
      2 C          62.2562   86.3271   10.5533 C.3     1  UNL1        0.0981
      3 C          62.4795   86.3736    9.0708 C.3     1  UNL1        0.0224
      4 C          63.1355   85.2182    8.3745 C.3     1  UNL1        0.0065
      5 C          63.5682   84.0164    9.1607 C.3     1  UNL1        0.0277
      6 C          63.3449   83.9698   10.6432 C.ar    1  UNL1       -0.0073
      7 C          63.7777   82.7679   11.4295 C.ar    1  UNL1       -0.0015
      8 C          63.5544   82.7214   12.9120 C.ar    1  UNL1        0.0203
      9 C          62.8984   83.8767   13.6083 C.ar    1  UNL1        0.0985
     10 N          62.4657   85.0786   12.8221 N.ar    1  UNL1       -0.2471
     11 C          62.6889   85.1252   11.3395 C.ar    1  UNL1        0.0695
     12 C          60.1944   87.8696   10.8983 C.3     1  UNL1        0.0986
     13 C          58.6710   91.4592   11.6360 C.3     1  UNL1        0.0275
     14 C          59.0324   90.0124   11.7974 C.2     1  UNL1       -0.0314
     15 C          59.8330   89.3165   10.7369 C.2     1  UNL1       -0.0159
     16 C          58.5931   89.2614   13.0193 C.3     1  UNL1        0.0877
     17 N          57.2642   88.5659   13.0348 N.3     1  UNL1       -0.3177
     18 H          56.5173   89.2585   12.9824 H       1  UNL1        0.1191
     19 H          57.1710   88.0299   13.8976 H       1  UNL1        0.1191
     20 C          62.3501   88.2505   12.2972 C.3     1  UNL1        0.0888
     21 C          63.0848   89.5045   11.9258 C.3     1  UNL1        0.0748
     22 C          63.9832   90.1713   12.9249 C.3     1  UNL1        0.0432
     23 C          64.7178   91.4253   12.5535 C.ar    1  UNL1       -0.0234
     24 C          65.6162   92.0921   13.5526 C.ar    1  UNL1       -0.0045
     25 C          66.3507   93.3460   13.1812 C.ar    1  UNL1       -0.0003
     26 C          66.1869   93.9332   11.8106 C.ar    1  UNL1       -0.0003
     27 C          65.2885   93.2664   10.8115 C.ar    1  UNL1       -0.0032
     28 C          64.5540   92.0125   11.1829 C.ar    1  UNL1       -0.0103
     29 C          63.6555   91.3456   10.1838 C.3     1  UNL1        0.0953
     30 N          62.9209   90.0917   10.5552 N.3     1  UNL1       -0.2934
     31 H          63.2096   89.3736    9.8908 H       1  UNL1        0.1236
@<TRIPOS>BOND
     1    13    14    1
     2    14    15    2
     3    15    12    1
     4    12     1    1
     5     1    20    1
     6    21    20    1
     7    21    22    1
     8    22    23    1
     9    23    24   ar
    10    24    25   ar
    11    25    26   ar
    12    26    27   ar
    13    27    28   ar
    14    28    29    1
    15    29    30    1
    16     2     1    1
    17     2     3    1
    18     3     4    1
    19     4     5    1
    20     5     6    1
    21     6     7   ar
    22     7     8   ar
    23     8     9   ar
    24     9    10   ar
    25    10    11   ar
    26    14    16    1
    27    16    17    1
    28    30    21    1
    29    11     2    1
    30    28    23   ar
    31    11     6   ar
    32    30    31    1
    33    17    18    1
    34    17    19    1
@<TRIPOS>MOLECULE
*****
 31 34 0 0 0
SMALL
GASTEIGER

@<TRIPOS>ATOM
      1 N          62.4390   86.0715   10.6264 N.3     1  UNL1       -0.2641
      2 C          63.0185   84.7330   10.9770 C.3     1  UNL1        0.0981
      3 C          63.6473   83.8855    9.9110 C.3     1  UNL1        0.0224
      4 C          64.2267   82.5471   10.2615 C.3     1  UNL1        0.0065
      5 C          64.1774   82.0562   11.6780 C.3     1  UNL1        0.0277
      6 C          63.5486   82.9037   12.7440 C.ar    1  UNL1       -0.0073
      7 C          63.4992   82.4128   14.1606 C.ar    1  UNL1       -0.0015
      8 C          62.8705   83.2603   15.2265 C.ar    1  UNL1        0.0203
      9 C          62.2910   84.5987   14.8760 C.ar    1  UNL1        0.0985
     10 N          62.3404   85.0896   13.4595 N.ar    1  UNL1       -0.2471
     11 C          62.9692   84.2421   12.3934 C.ar    1  UNL1        0.0695
     12 C          62.3271   86.4873    9.1896 C.3     1  UNL1        0.0986
     13 C          58.7013   86.8351    7.6142 C.3     1  UNL1        0.0275
     14 C          59.9451   87.1496    8.3913 C.2     1  UNL1       -0.0314
     15 C          61.0832   86.1728    8.4125 C.2     1  UNL1       -0.0159
     16 C          60.0508   88.4408    9.1473 C.3     1  UNL1        0.0877
     17 N          60.2764   89.7264    8.4081 N.3     1  UNL1       -0.3177
     18 H          61.1973   89.7094    7.9697 H       1  UNL1        0.1191
     19 H          60.2254   90.5078    9.0616 H       1  UNL1        0.1191
     20 C          61.9715   86.9941   11.7127 C.3     1  UNL1        0.0888
     21 C          62.8026   88.1823   12.0969 C.3     1  UNL1        0.0748
     22 C          62.9537   89.3313   11.1446 C.3     1  UNL1        0.0432
     23 C          63.7848   90.5195   11.5288 C.ar    1  UNL1       -0.0234
     24 C          63.9359   91.6686   10.5765 C.ar    1  UNL1       -0.0045
     25 C          64.7669   92.8567   10.9607 C.ar    1  UNL1       -0.0003
     26 C          65.4468   92.8958   12.2972 C.ar    1  UNL1       -0.0003
     27 C          65.2957   91.7468   13.2494 C.ar    1  UNL1       -0.0032
     28 C          64.4647   90.5587   12.8653 C.ar    1  UNL1       -0.0103
     29 C          64.3136   89.4096   13.8176 C.3     1  UNL1        0.0953
     30 N          63.4825   88.2214   13.4334 N.3     1  UNL1       -0.2934
     31 H          62.7509   88.1334   14.1386 H       1  UNL1        0.1236
@<TRIPOS>BOND
     1    13    14    1
     2    14    15    2
     3    15    12    1
     4    12     1    1
     5     1    20    1
     6    21    20    1
     7    21    22    1
     8    22    23    1
     9    23    24   ar
    10    24    25   ar
    11    25    26   ar
    12    26    27   ar
    13    27    28   ar
    14    28    29    1
    15    29    30    1
    16     2     1    1
    17     2     3    1
    18     3     4    1
    19     4     5    1
    20     5     6    1
    21     6     7   ar
    22     7     8   ar
    23     8     9   ar
    24     9    10   ar
    25    10    11   ar
    26    14    16    1
    27    16    17    1
    28    30    21    1
    29    11     2    1
    30    28    23   ar
    31    11     6   ar
    32    30    31    1
    33    17    18    1
    34    17    19    1
@<TRIPOS>MOLECULE
*****
 31 34 0 0 0
SMALL
GASTEIGER

@<TRIPOS>ATOM
      1 N          62.2316   88.9881   11.9273 N.3     1  UNL1       -0.2641
      2 C          63.0801   89.7481   12.9032 C.3     1  UNL1        0.0981
      3 C          63.0571   89.3854   14.3585 C.3     1  UNL1        0.0224
      4 C          63.9057   90.1454   15.3344 C.3     1  UNL1        0.0065
      5 C          64.7773   91.2681   14.8550 C.3     1  UNL1        0.0277
      6 C          64.8003   91.6308   13.3997 C.ar    1  UNL1       -0.0073
      7 C          65.6719   92.7535   12.9203 C.ar    1  UNL1       -0.0015
      8 C          65.6949   93.1162   11.4650 C.ar    1  UNL1        0.0203
      9 C          64.8464   92.3562   10.4891 C.ar    1  UNL1        0.0985
     10 N          63.9748   91.2336   10.9685 N.ar    1  UNL1       -0.2471
     11 C          63.9517   90.8708   12.4238 C.ar    1  UNL1        0.0695
     12 C          60.8391   89.4547   11.6220 C.3     1  UNL1        0.0986
     13 C          59.6883   89.3072    7.8267 C.3     1  UNL1        0.0275
     14 C          60.0458   88.8731    9.2173 C.2     1  UNL1       -0.0314
     15 C          60.4816   89.8888   10.2313 C.2     1  UNL1       -0.0159
     16 C          59.9674   87.4232    9.5939 C.3     1  UNL1        0.0877
     17 N          59.7138   86.3871    8.5393 N.3     1  UNL1       -0.3177
     18 H          58.7773   86.5146    8.1557 H       1  UNL1        0.1191
     19 H          59.7886   85.4571    8.9515 H       1  UNL1        0.1191
     20 C          62.7754   87.7616   11.2568 C.3     1  UNL1        0.0888
     21 C          62.9783   86.5025   12.0466 C.3     1  UNL1        0.0748
     22 C          62.6352   85.1738   11.4411 C.3     1  UNL1        0.0432
     23 C          62.8381   83.9148   12.2309 C.ar    1  UNL1       -0.0234
     24 C          62.4950   82.5860   11.6254 C.ar    1  UNL1       -0.0045
     25 C          62.6979   81.3271   12.4152 C.ar    1  UNL1       -0.0003
     26 C          63.2438   81.3969   13.8106 C.ar    1  UNL1       -0.0003
     27 C          63.5869   82.7256   14.4161 C.ar    1  UNL1       -0.0032
     28 C          63.3840   83.9846   13.6263 C.ar    1  UNL1       -0.0103
     29 C          63.7271   85.3134   14.2318 C.3     1  UNL1        0.0953
     30 N          63.5242   86.5723   13.4420 N.3     1  UNL1       -0.2934
     31 H          64.4333   87.0307   13.3799 H       1  UNL1        0.1236
@<TRIPOS>BOND
     1    13    14    1
     2    14    15    2
     3    15    12    1
     4    12     1    1
     5     1    20    1
     6    21    20    1
     7    21    22    1
     8    22    23    1
     9    23    24   ar
    10    24    25   ar
    11    25    26   ar
    12    26    27   ar
    13    27    28   ar
    14    28    29    1
    15    29    30    1
    16     2     1    1
    17     2     3    1
    18     3     4    1
    19     4     5    1
    20     5     6    1
    21     6     7   ar
    22     7     8   ar
    23     8     9   ar
    24     9    10   ar
    25    10    11   ar
    26    14    16    1
    27    16    17    1
    28    30    21    1
    29    11     2    1
    30    28    23   ar
    31    11     6   ar
    32    30    31    1
    33    17    18    1
    34    17    19    1
@<TRIPOS>MOLECULE
*****
 31 34 0 0 0
SMALL
GASTEIGER

@<TRIPOS>ATOM
      1 N          61.7366   87.6880   11.1540 N.3     1  UNL1       -0.2641
      2 C          60.9228   87.3340    9.9447 C.3     1  UNL1        0.0981
      3 C          59.5582   87.9283    9.7587 C.3     1  UNL1        0.0224
      4 C          58.7444   87.5743    8.5494 C.3     1  UNL1        0.0065
      5 C          59.2952   86.6260    7.5261 C.3     1  UNL1        0.0277
      6 C          60.6598   86.0316    7.7121 C.ar    1  UNL1       -0.0073
      7 C          61.2107   85.0832    6.6888 C.ar    1  UNL1       -0.0015
      8 C          62.5752   84.4888    6.8748 C.ar    1  UNL1        0.0203
      9 C          63.3890   84.8429    8.0841 C.ar    1  UNL1        0.0985
     10 N          62.8382   85.7912    9.1074 N.ar    1  UNL1       -0.2471
     11 C          61.4736   86.3856    8.9214 C.ar    1  UNL1        0.0695
     12 C          62.7421   86.7141   11.6928 C.3     1  UNL1        0.0986
     13 C          62.5148   83.4562   13.9477 C.3     1  UNL1        0.0275
     14 C          62.9667   84.7850   13.4186 C.2     1  UNL1       -0.0314
     15 C          62.2902   85.3851   12.2219 C.2     1  UNL1       -0.0159
     16 C          64.0950   85.5138   14.0863 C.3     1  UNL1        0.0877
     17 N          63.8101   86.4825   15.1955 N.3     1  UNL1       -0.3177
     18 H          63.2879   87.2774   14.8269 H       1  UNL1        0.1191
     19 H          64.6895   86.8094   15.5957 H       1  UNL1        0.1191
     20 C          61.5449   89.0160   11.8245 C.3     1  UNL1        0.0888
     21 C          62.7133   89.7127   12.4566 C.3     1  UNL1        0.0748
     22 C          63.4020   90.8305   11.7313 C.3     1  UNL1        0.0432
     23 C          64.5704   91.5273   12.3634 C.ar    1  UNL1       -0.0234
     24 C          65.2591   92.6451   11.6381 C.ar    1  UNL1       -0.0045
     25 C          66.4274   93.3417   12.2702 C.ar    1  UNL1       -0.0003
     26 C          66.9071   92.9205   13.6276 C.ar    1  UNL1       -0.0003
     27 C          66.2185   91.8027   14.3529 C.ar    1  UNL1       -0.0032
     28 C          65.0501   91.1060   13.7208 C.ar    1  UNL1       -0.0103
     29 C          64.3614   89.9881   14.4461 C.3     1  UNL1        0.0953
     30 N          63.1930   89.2915   13.8140 N.3     1  UNL1       -0.2934
     31 H          62.4047   89.4008   14.4519 H       1  UNL1        0.1236
@<TRIPOS>BOND
     1    13    14    1
     2    14    15    2
     3    15    12    1
     4    12     1    1
     5     1    20    1
     6    21    20    1
     7    21    22    1
     8    22    23    1
     9    23    24   ar
    10    24    25   ar
    11    25    26   ar
    12    26    27   ar
    13    27    28   ar
    14    28    29    1
    15    29    30    1
    16     2     1    1
    17     2     3    1
    18     3     4    1
    19     4     5    1
    20     5     6    1
    21     6     7   ar
    22     7     8   ar
    23     8     9   ar
    24     9    10   ar
    25    10    11   ar
    26    14    16    1
    27    16    17    1
    28    30    21    1
    29    11     2    1
    30    28    23   ar
    31    11     6   ar
    32    30    31    1
    33    17    18    1
    34    17    19    1
