@<TRIPOS>MOLECULE
*****
 37 39 0 0 0
SMALL
GASTEIGER

@<TRIPOS>ATOM
      1 C          63.5929   87.2536   15.9505 C.3     1  UNL1        0.1812
      2 O          64.2391   87.3738   14.6022 O.3     1  UNL1       -0.3784
      3 H          64.6671   86.5341   14.3728 H       1  UNL1        0.2106
      4 C          62.9466   87.1335   17.2987 C.3     1  UNL1        0.4197
      5 F          62.3003   87.0133   18.6470 F       1  UNL1       -0.1676
      6 F          63.8199   85.9548   17.6123 F       1  UNL1       -0.1676
      7 F          62.0733   88.3120   16.9852 F       1  UNL1       -0.1676
      8 C          64.0664   85.8338   16.0509 C.3     1  UNL1        0.0398
      9 C          63.8658   84.8931   14.8999 C.3     1  UNL1        0.0216
     10 C          65.3192   85.0127   14.5489 C.3     1  UNL1        0.0045
     11 C          62.4123   84.7736   15.2509 C.3     1  UNL1        0.0045
     12 C          63.0634   81.1303   10.2958 C.3     1  UNL1        0.0310
     13 C          63.2640   82.0710   11.4468 C.ar    1  UNL1       -0.0217
     14 C          63.8795   81.5756   12.7219 C.ar    1  UNL1       -0.0046
     15 C          64.0801   82.5163   13.8729 C.ar    1  UNL1       -0.0045
     16 C          63.6652   83.9524   13.7489 C.ar    1  UNL1       -0.0184
     17 C          63.0497   84.4478   12.4739 C.ar    1  UNL1        0.0488
     18 C          62.8491   83.5071   11.3228 C.ar    1  UNL1       -0.0001
     19 C          62.6348   85.8840   12.3498 C.2     1  UNL1        0.2424
     20 N          61.2173   86.2276   11.9995 N.am    1  UNL1       -0.3253
     21 O          63.6373   86.9765   12.5761 O.2     1  UNL1       -0.2704
     22 H          60.5593   85.5105   11.8510 H       1  UNL1        0.1453
     23 H          60.9450   87.1702   11.9181 H       1  UNL1        0.1453
     24 C          63.1194   88.6734   15.8501 C.3     1  UNL1        0.0811
     25 C          63.5105   89.5127   14.6700 C.2     1  UNL1        0.0613
     26 C          64.7314   90.3784   14.5696 C.2     1  UNL1        0.0161
     27 C          64.7249   91.0344   13.2207 C.2     1  UNL1        0.0195
     28 C          65.6761   91.9914   12.5654 C.2     1  UNL1        0.0388
     29 C          65.4023   92.4882   11.1768 C.2     1  UNL1        0.1823
     30 N          64.1773   92.0281   10.4435 N.2     1  UNL1       -0.2468
     31 C          63.2261   91.0711   11.0988 C.3     1  UNL1        0.1722
     32 C          63.4999   90.5743   12.4874 C.2     1  UNL1        0.0833
     33 N          62.7493   89.6338   13.3831 N.2     1  UNL1       -0.2519
     34 S          66.3535   93.4452   10.5214 S.O2    1  UNL1        0.0265
     35 C          67.3046   94.4022    9.8661 C.3     1  UNL1        0.1834
     36 O          65.4097   94.5764   10.8035 O.2     1  UNL1       -0.1671
     37 O          67.2972   92.3140   10.2393 O.2     1  UNL1       -0.1671
@<TRIPOS>BOND
     1    12    13    1
     2    13    14   ar
     3    14    15   ar
     4    15    16   ar
     5    16     9    1
     6     9    10    1
     7     9    11    1
     8     9     8    1
     9     8     1    1
    10     1     2    1
    11     1    24    1
    12    24    25    1
    13    25    26    2
    14    26    27    1
    15    27    28    2
    16    28    29    1
    17    29    34    1
    18    34    35    1
    19    34    36    2
    20    34    37    2
    21    29    30    2
    22    30    31    1
    23    31    32    1
    24    32    33    2
    25     1     4    1
    26     4     5    1
    27     4     6    1
    28     4     7    1
    29    16    17   ar
    30    17    19    1
    31    19    20   am
    32    19    21    2
    33    17    18   ar
    34    18    13   ar
    35    33    25    1
    36    32    27    1
    37     2     3    1
    38    20    22    1
    39    20    23    1
@<TRIPOS>MOLECULE
*****
 37 39 0 0 0
SMALL
GASTEIGER

@<TRIPOS>ATOM
      1 C          61.3007   89.4195   11.2985 C.3     1  UNL1        0.1812
      2 O          62.7270   89.0415   11.0289 O.3     1  UNL1       -0.3784
      3 H          62.7964   88.0773   10.9490 H       1  UNL1        0.2106
      4 C          59.8744   89.7975   11.5682 C.3     1  UNL1        0.4197
      5 F          58.4481   90.1756   11.8378 F       1  UNL1       -0.1676
      6 F          59.7235   88.5963   12.4539 F       1  UNL1       -0.1676
      7 F          60.0254   90.9987   10.6825 F       1  UNL1       -0.1676
      8 C          60.9102   87.9716   11.2629 C.3     1  UNL1        0.0398
      9 C          61.1792   87.1523   10.0356 C.3     1  UNL1        0.0216
     10 C          61.2669   85.9158   10.8802 C.3     1  UNL1        0.0045
     11 C          61.0916   88.3887    9.1909 C.3     1  UNL1        0.0045
     12 C          62.2555   83.8749    5.1263 C.3     1  UNL1        0.0310
     13 C          61.9864   84.6942    6.3536 C.ar    1  UNL1       -0.0217
     14 C          63.0023   84.7497    7.4560 C.ar    1  UNL1       -0.0046
     15 C          62.7332   85.5690    8.6833 C.ar    1  UNL1       -0.0045
     16 C          61.4483   86.3329    8.8082 C.ar    1  UNL1       -0.0184
     17 C          60.4325   86.2775    7.7059 C.ar    1  UNL1        0.0488
     18 C          60.7016   85.4581    6.4786 C.ar    1  UNL1       -0.0001
     19 C          59.1476   87.0414    7.8309 C.2     1  UNL1        0.2424
     20 N          58.8841   88.2169    6.9373 N.am    1  UNL1       -0.3253
     21 O          58.1264   86.6297    8.8495 O.2     1  UNL1       -0.2704
     22 H          59.5543   88.4871    6.2688 H       1  UNL1        0.1453
     23 H          58.0408   88.7183    7.0193 H       1  UNL1        0.1453
     24 C          61.6912   90.8673   11.3342 C.3     1  UNL1        0.0811
     25 C          63.0572   91.2641   11.8100 C.2     1  UNL1        0.0613
     26 C          63.5597   91.1758   13.2206 C.2     1  UNL1        0.0161
     27 C          64.9737   91.6761   13.2412 C.2     1  UNL1        0.0195
     28 C          65.9710   91.8210   14.3523 C.2     1  UNL1        0.0388
     29 C          67.3398   92.3634   14.0654 C.2     1  UNL1        0.1823
     30 N          67.7112   92.7609   12.6676 N.2     1  UNL1       -0.2468
     31 C          66.7139   92.6160   11.5565 C.3     1  UNL1        0.1722
     32 C          65.3452   92.0736   11.8433 C.2     1  UNL1        0.0833
     33 N          64.1607   91.8190   10.9588 N.2     1  UNL1       -0.2519
     34 S          68.3371   92.5083   15.1764 S.O2    1  UNL1        0.0265
     35 C          69.3344   92.6532   16.2874 C.3     1  UNL1        0.1834
     36 O          67.2231   92.4781   16.1804 O.2     1  UNL1       -0.1671
     37 O          69.4512   92.5385   14.1724 O.2     1  UNL1       -0.1671
@<TRIPOS>BOND
     1    12    13    1
     2    13    14   ar
     3    14    15   ar
     4    15    16   ar
     5    16     9    1
     6     9    10    1
     7     9    11    1
     8     9     8    1
     9     8     1    1
    10     1     2    1
    11     1    24    1
    12    24    25    1
    13    25    26    2
    14    26    27    1
    15    27    28    2
    16    28    29    1
    17    29    34    1
    18    34    35    1
    19    34    36    2
    20    34    37    2
    21    29    30    2
    22    30    31    1
    23    31    32    1
    24    32    33    2
    25     1     4    1
    26     4     5    1
    27     4     6    1
    28     4     7    1
    29    16    17   ar
    30    17    19    1
    31    19    20   am
    32    19    21    2
    33    17    18   ar
    34    18    13   ar
    35    33    25    1
    36    32    27    1
    37     2     3    1
    38    20    22    1
    39    20    23    1
@<TRIPOS>MOLECULE
*****
 37 39 0 0 0
SMALL
GASTEIGER

@<TRIPOS>ATOM
      1 C          62.3612   86.6363   10.6685 C.3     1  UNL1        0.1812
      2 O          63.1147   86.4765   11.9556 O.3     1  UNL1       -0.3784
      3 H          63.6520   85.6698   11.9176 H       1  UNL1        0.2106
      4 C          61.6076   86.7962    9.3814 C.3     1  UNL1        0.4197
      5 F          60.8540   86.9561    8.0943 F       1  UNL1       -0.1676
      6 F          62.8409   86.4235    8.6131 F       1  UNL1       -0.1676
      7 F          60.3744   87.1688   10.1497 F       1  UNL1       -0.1676
      8 C          62.9760   85.3697   10.1511 C.3     1  UNL1        0.0398
      9 C          62.9159   84.1165   10.9733 C.3     1  UNL1        0.0216
     10 C          64.2332   83.6798   10.4040 C.3     1  UNL1        0.0045
     11 C          61.5987   84.5533   11.5427 C.3     1  UNL1        0.0045
     12 C          62.6756   79.1040   14.2622 C.3     1  UNL1        0.0310
     13 C          62.7357   80.3571   13.4400 C.ar    1  UNL1       -0.0217
     14 C          62.5559   80.2874   11.9523 C.ar    1  UNL1       -0.0046
     15 C          62.6160   81.5406   11.1301 C.ar    1  UNL1       -0.0045
     16 C          62.8559   82.8634   11.7955 C.ar    1  UNL1       -0.0184
     17 C          63.0356   82.9330   13.2831 C.ar    1  UNL1        0.0488
     18 C          62.9755   81.6799   14.1053 C.ar    1  UNL1       -0.0001
     19 C          63.2754   84.2558   13.9485 C.2     1  UNL1        0.2424
     20 N          62.1987   84.8806   14.7854 N.am    1  UNL1       -0.3253
     21 O          64.5919   84.9539   13.7770 O.2     1  UNL1       -0.2704
     22 H          61.3346   84.4224   14.8979 H       1  UNL1        0.1453
     23 H          62.3561   85.7487   15.2221 H       1  UNL1        0.1453
     24 C          61.7463   87.9029   11.1858 C.3     1  UNL1        0.0811
     25 C          62.6115   89.0947   11.4707 C.2     1  UNL1        0.0613
     26 C          63.0632   90.1160   10.4691 C.2     1  UNL1        0.0161
     27 C          63.9078   91.1269   11.1866 C.2     1  UNL1        0.0195
     28 C          64.6219   92.3572   10.7109 C.2     1  UNL1        0.0388
     29 C          65.4063   93.1911   11.6801 C.2     1  UNL1        0.1823
     30 N          65.4765   92.7947   13.1251 N.2     1  UNL1       -0.2468
     31 C          64.7624   91.5644   13.6008 C.3     1  UNL1        0.1722
     32 C          63.9780   90.7305   12.6316 C.2     1  UNL1        0.0833
     33 N          63.1769   89.4745   12.8072 N.2     1  UNL1       -0.2519
     34 S          66.1204   94.4214   11.2044 S.O2    1  UNL1        0.0265
     35 C          66.8346   95.6518   10.7287 C.3     1  UNL1        0.1834
     36 O          66.1031   93.8893    9.8021 O.2     1  UNL1       -0.1671
     37 O          66.1378   94.9536   12.6067 O.2     1  UNL1       -0.1671
@<TRIPOS>BOND
     1    12    13    1
     2    13    14   ar
     3    14    15   ar
     4    15    16   ar
     5    16     9    1
     6     9    10    1
     7     9    11    1
     8     9     8    1
     9     8     1    1
    10     1     2    1
    11     1    24    1
    12    24    25    1
    13    25    26    2
    14    26    27    1
    15    27    28    2
    16    28    29    1
    17    29    34    1
    18    34    35    1
    19    34    36    2
    20    34    37    2
    21    29    30    2
    22    30    31    1
    23    31    32    1
    24    32    33    2
    25     1     4    1
    26     4     5    1
    27     4     6    1
    28     4     7    1
    29    16    17   ar
    30    17    19    1
    31    19    20   am
    32    19    21    2
    33    17    18   ar
    34    18    13   ar
    35    33    25    1
    36    32    27    1
    37     2     3    1
    38    20    22    1
    39    20    23    1
@<TRIPOS>MOLECULE
*****
 37 39 0 0 0
SMALL
GASTEIGER

@<TRIPOS>ATOM
      1 C          62.4061   87.2434   11.1880 C.3     1  UNL1        0.1812
      2 O          63.2494   86.8235   12.3552 O.3     1  UNL1       -0.3784
      3 H          63.6834   85.9797   12.1536 H       1  UNL1        0.2106
      4 C          61.5628   87.6633   10.0207 C.3     1  UNL1        0.4197
      5 F          60.7196   88.0833    8.8534 F       1  UNL1       -0.1676
      6 F          60.4526   88.0376   10.9574 F       1  UNL1       -0.1676
      7 F          62.6730   87.2891    9.0840 F       1  UNL1       -0.1676
      8 C          62.8198   86.0079   10.4446 C.3     1  UNL1        0.0398
      9 C          62.8214   84.6791   11.1404 C.3     1  UNL1        0.0216
     10 C          61.5364   85.0369   11.8266 C.3     1  UNL1        0.0045
     11 C          64.1064   84.3214   10.4543 C.3     1  UNL1        0.0045
     12 C          62.8278   79.3639   13.9240 C.3     1  UNL1        0.0310
     13 C          62.8262   80.6927   13.2281 C.ar    1  UNL1       -0.0217
     14 C          62.5108   80.7721   11.7637 C.ar    1  UNL1       -0.0046
     15 C          62.5092   82.1009   11.0679 C.ar    1  UNL1       -0.0045
     16 C          62.8230   83.3503   11.8363 C.ar    1  UNL1       -0.0184
     17 C          63.1383   83.2709   13.3006 C.ar    1  UNL1        0.0488
     18 C          63.1399   81.9421   13.9965 C.ar    1  UNL1       -0.0001
     19 C          63.4521   84.5204   14.0691 C.2     1  UNL1        0.2424
     20 N          62.4417   85.0893   15.0207 N.am    1  UNL1       -0.3253
     21 O          64.7762   85.2009   13.8860 O.2     1  UNL1       -0.2704
     22 H          61.5726   84.6426   15.1408 H       1  UNL1        0.1453
     23 H          62.6476   85.9093   15.5250 H       1  UNL1        0.1453
     24 C          61.9924   88.4788   11.9313 C.3     1  UNL1        0.0811
     25 C          63.0227   89.4915   12.3350 C.2     1  UNL1        0.0613
     26 C          63.8580   89.4513   13.5804 C.2     1  UNL1        0.0161
     27 C          64.7501   90.6571   13.5793 C.2     1  UNL1        0.0195
     28 C          65.7843   91.1414   14.5519 C.2     1  UNL1        0.0388
     29 C          66.5346   92.4112   14.2785 C.2     1  UNL1        0.1823
     30 N          66.2508   93.1966   13.0325 N.2     1  UNL1       -0.2468
     31 C          65.2166   92.7123   12.0599 C.3     1  UNL1        0.1722
     32 C          64.4663   91.4426   12.3333 C.2     1  UNL1        0.0833
     33 N          63.3987   90.7222   11.5643 N.2     1  UNL1       -0.2519
     34 S          67.5688   92.8954   15.2511 S.O2    1  UNL1        0.0265
     35 C          68.6030   93.3797   16.2237 C.3     1  UNL1        0.1834
     36 O          66.5388   92.9052   16.3415 O.2     1  UNL1       -0.1671
     37 O          68.5988   92.8857   14.1607 O.2     1  UNL1       -0.1671
@<TRIPOS>BOND
     1    12    13    1
     2    13    14   ar
     3    14    15   ar
     4    15    16   ar
     5    16     9    1
     6     9    10    1
     7     9    11    1
     8     9     8    1
     9     8     1    1
    10     1     2    1
    11     1    24    1
    12    24    25    1
    13    25    26    2
    14    26    27    1
    15    27    28    2
    16    28    29    1
    17    29    34    1
    18    34    35    1
    19    34    36    2
    20    34    37    2
    21    29    30    2
    22    30    31    1
    23    31    32    1
    24    32    33    2
    25     1     4    1
    26     4     5    1
    27     4     6    1
    28     4     7    1
    29    16    17   ar
    30    17    19    1
    31    19    20   am
    32    19    21    2
    33    17    18   ar
    34    18    13   ar
    35    33    25    1
    36    32    27    1
    37     2     3    1
    38    20    22    1
    39    20    23    1
@<TRIPOS>MOLECULE
*****
 37 39 0 0 0
SMALL
GASTEIGER

@<TRIPOS>ATOM
      1 C          61.3725   88.3220    9.2378 C.3     1  UNL1        0.1812
      2 O          62.6158   88.1143   10.0508 O.3     1  UNL1       -0.3784
      3 H          62.9820   87.2360    9.8628 H       1  UNL1        0.2106
      4 C          60.1291   88.5297    8.4248 C.3     1  UNL1        0.4197
      5 F          58.8857   88.7374    7.6119 F       1  UNL1       -0.1676
      6 F          60.5063   87.3698    7.5516 F       1  UNL1       -0.1676
      7 F          59.7519   89.6895    9.2980 F       1  UNL1       -0.1676
      8 C          61.5335   86.9548    8.6421 C.3     1  UNL1        0.0398
      9 C          62.1717   85.8584    9.4425 C.3     1  UNL1        0.0216
     10 C          63.4070   85.9607    8.5977 C.3     1  UNL1        0.0045
     11 C          60.9365   85.7561   10.2873 C.3     1  UNL1        0.0045
     12 C          64.7246   81.4729   12.6441 C.3     1  UNL1        0.0310
     13 C          64.0864   82.5693   11.8437 C.ar    1  UNL1       -0.0217
     14 C          63.8805   82.3980   10.3678 C.ar    1  UNL1       -0.0046
     15 C          63.2423   83.4944    9.5674 C.ar    1  UNL1       -0.0045
     16 C          62.8099   84.7620   10.2429 C.ar    1  UNL1       -0.0184
     17 C          63.0158   84.9332   11.7188 C.ar    1  UNL1        0.0488
     18 C          63.6540   83.8368   12.5192 C.ar    1  UNL1       -0.0001
     19 C          62.5834   86.2008   12.3944 C.2     1  UNL1        0.2424
     20 N          63.5921   87.0536   13.1052 N.am    1  UNL1       -0.3253
     21 O          61.1423   86.6156   12.3590 O.2     1  UNL1       -0.2704
     22 H          64.5379   86.7813   13.1284 H       1  UNL1        0.1453
     23 H          63.3083   87.8855   13.5486 H       1  UNL1        0.1453
     24 C          61.2114   89.6892    9.8334 C.3     1  UNL1        0.0811
     25 C          62.1143   90.1338   10.9456 C.2     1  UNL1        0.0613
     26 C          63.3026   91.0389   10.8081 C.2     1  UNL1        0.0161
     27 C          63.9103   91.2160   12.1680 C.2     1  UNL1        0.0195
     28 C          65.0986   91.9989   12.6422 C.2     1  UNL1        0.0388
     29 C          65.4742   91.9862   14.0944 C.2     1  UNL1        0.1823
     30 N          64.6615   91.1906   15.0724 N.2     1  UNL1       -0.2468
     31 C          63.4732   90.4076   14.5982 C.3     1  UNL1        0.1722
     32 C          63.0975   90.4203   13.1461 C.2     1  UNL1        0.0833
     33 N          61.9875   89.7515   12.3905 N.2     1  UNL1       -0.2519
     34 S          66.6626   92.7691   14.5686 S.O2    1  UNL1        0.0265
     35 C          67.8510   93.5520   15.0428 C.3     1  UNL1        0.1834
     36 O          67.2521   91.5200   15.1537 O.2     1  UNL1       -0.1671
     37 O          66.0732   94.0182   13.9835 O.2     1  UNL1       -0.1671
@<TRIPOS>BOND
     1    12    13    1
     2    13    14   ar
     3    14    15   ar
     4    15    16   ar
     5    16     9    1
     6     9    10    1
     7     9    11    1
     8     9     8    1
     9     8     1    1
    10     1     2    1
    11     1    24    1
    12    24    25    1
    13    25    26    2
    14    26    27    1
    15    27    28    2
    16    28    29    1
    17    29    34    1
    18    34    35    1
    19    34    36    2
    20    34    37    2
    21    29    30    2
    22    30    31    1
    23    31    32    1
    24    32    33    2
    25     1     4    1
    26     4     5    1
    27     4     6    1
    28     4     7    1
    29    16    17   ar
    30    17    19    1
    31    19    20   am
    32    19    21    2
    33    17    18   ar
    34    18    13   ar
    35    33    25    1
    36    32    27    1
    37     2     3    1
    38    20    22    1
    39    20    23    1
@<TRIPOS>MOLECULE
*****
 37 39 0 0 0
SMALL
GASTEIGER

@<TRIPOS>ATOM
      1 C          62.0997   89.3344   10.8022 C.3     1  UNL1        0.1812
      2 O          63.3499   88.9230   11.5215 O.3     1  UNL1       -0.3784
      3 H          63.6559   89.6534   12.0817 H       1  UNL1        0.2106
      4 C          60.8494   89.7458   10.0828 C.3     1  UNL1        0.4197
      5 F          59.5991   90.1573    9.3634 F       1  UNL1       -0.1676
      6 F          60.3991   90.5018   11.2977 F       1  UNL1       -0.1676
      7 F          61.2996   88.9899    8.8680 F       1  UNL1       -0.1676
      8 C          62.1594   90.6779   11.4667 C.3     1  UNL1        0.0398
      9 C          63.4069   91.1066   12.1809 C.3     1  UNL1        0.0216
     10 C          64.0804   91.3443   10.8618 C.3     1  UNL1        0.0045
     11 C          62.7334   90.8689   13.4999 C.3     1  UNL1        0.0045
     12 C          68.3967   92.8212   15.0377 C.3     1  UNL1        0.0310
     13 C          67.1493   92.3925   14.3235 C.ar    1  UNL1       -0.0217
     14 C          66.7449   93.0702   13.0478 C.ar    1  UNL1       -0.0046
     15 C          65.4975   92.6416   12.3336 C.ar    1  UNL1       -0.0045
     16 C          64.6543   91.5352   12.8951 C.ar    1  UNL1       -0.0184
     17 C          65.0587   90.8576   14.1707 C.ar    1  UNL1        0.0488
     18 C          66.3062   91.2862   14.8849 C.ar    1  UNL1       -0.0001
     19 C          64.2156   89.7512   14.7321 C.2     1  UNL1        0.2424
     20 N          64.3092   88.3700   14.1548 N.am    1  UNL1       -0.3253
     21 O          63.2789   90.0262   15.8710 O.2     1  UNL1       -0.2704
     22 H          64.9241   88.1895   13.4074 H       1  UNL1        0.1453
     23 H          63.7559   87.6439   14.5233 H       1  UNL1        0.1453
     24 C          62.0399   87.9910   10.1377 C.3     1  UNL1        0.0811
     25 C          62.2722   86.7459   10.9412 C.2     1  UNL1        0.0613
     26 C          62.0334   85.3395   10.4770 C.2     1  UNL1        0.0161
     27 C          62.3977   84.4129   11.5989 C.2     1  UNL1        0.0195
     28 C          62.3669   82.9178   11.7160 C.2     1  UNL1        0.0388
     29 C          62.8000   82.2563   12.9907 C.2     1  UNL1        0.1823
     30 N          63.2639   83.0898   14.1483 N.2     1  UNL1       -0.2468
     31 C          63.2947   84.5849   14.0312 C.3     1  UNL1        0.1722
     32 C          62.8616   85.2465   12.7566 C.2     1  UNL1        0.0833
     33 N          62.7840   86.6883   12.3501 N.2     1  UNL1       -0.2519
     34 S          62.7693   80.7612   13.1078 S.O2    1  UNL1        0.0265
     35 C          62.7385   79.2661   13.2249 C.3     1  UNL1        0.1834
     36 O          62.7054   80.8795   14.6018 O.2     1  UNL1       -0.1671
     37 O          62.8331   80.6429   11.6139 O.2     1  UNL1       -0.1671
@<TRIPOS>BOND
     1    12    13    1
     2    13    14   ar
     3    14    15   ar
     4    15    16   ar
     5    16     9    1
     6     9    10    1
     7     9    11    1
     8     9     8    1
     9     8     1    1
    10     1     2    1
    11     1    24    1
    12    24    25    1
    13    25    26    2
    14    26    27    1
    15    27    28    2
    16    28    29    1
    17    29    34    1
    18    34    35    1
    19    34    36    2
    20    34    37    2
    21    29    30    2
    22    30    31    1
    23    31    32    1
    24    32    33    2
    25     1     4    1
    26     4     5    1
    27     4     6    1
    28     4     7    1
    29    16    17   ar
    30    17    19    1
    31    19    20   am
    32    19    21    2
    33    17    18   ar
    34    18    13   ar
    35    33    25    1
    36    32    27    1
    37     2     3    1
    38    20    22    1
    39    20    23    1
@<TRIPOS>MOLECULE
*****
 37 39 0 0 0
SMALL
GASTEIGER

@<TRIPOS>ATOM
      1 C          61.3345   89.5230   11.1926 C.3     1  UNL1        0.1812
      2 O          61.6368   89.7422   12.6453 O.3     1  UNL1       -0.3784
      3 H          61.3760   88.9572   13.1519 H       1  UNL1        0.2106
      4 C          61.0323   89.3037    9.7398 C.3     1  UNL1        0.4197
      5 F          60.7300   89.0845    8.2870 F       1  UNL1       -0.1676
      6 F          59.5659   89.4419   10.0240 F       1  UNL1       -0.1676
      7 F          62.4986   89.1655    9.4556 F       1  UNL1       -0.1676
      8 C          60.7999   88.1578   11.5098 C.3     1  UNL1        0.0398
      9 C          61.6063   86.9392   11.1709 C.3     1  UNL1        0.0216
     10 C          60.4217   86.3525   10.4619 C.3     1  UNL1        0.0045
     11 C          62.7909   87.5259   11.8798 C.3     1  UNL1        0.0045
     12 C          64.8317   82.0649    9.8151 C.3     1  UNL1        0.0310
     13 C          64.0254   83.2835   10.1541 C.ar    1  UNL1       -0.0217
     14 C          63.4480   84.1295    9.0581 C.ar    1  UNL1       -0.0046
     15 C          62.6416   85.3480    9.3970 C.ar    1  UNL1       -0.0045
     16 C          62.4127   85.7206   10.8319 C.ar    1  UNL1       -0.0184
     17 C          62.9900   84.8747   11.9278 C.ar    1  UNL1        0.0488
     18 C          63.7964   83.6561   11.5889 C.ar    1  UNL1       -0.0001
     19 C          62.7610   85.2473   13.3627 C.2     1  UNL1        0.2424
     20 N          63.7603   86.1021   14.0842 N.am    1  UNL1       -0.3253
     21 O          61.5328   84.7650   14.0759 O.2     1  UNL1       -0.2704
     22 H          64.5664   86.4187   13.6161 H       1  UNL1        0.1453
     23 H          63.6100   86.3467   15.0260 H       1  UNL1        0.1453
     24 C          61.8691   90.8881   10.8754 C.3     1  UNL1        0.0811
     25 C          63.1905   91.3247   11.4348 C.2     1  UNL1        0.0613
     26 C          63.6396   91.1711   12.8578 C.2     1  UNL1        0.0161
     27 C          65.0216   91.7430   12.9721 C.2     1  UNL1        0.0195
     28 C          65.9635   91.8676   14.1328 C.2     1  UNL1        0.0388
     29 C          67.3105   92.4992   13.9411 C.2     1  UNL1        0.1823
     30 N          67.7156   93.0063   12.5888 N.2     1  UNL1       -0.2468
     31 C          66.7736   92.8817   11.4281 C.3     1  UNL1        0.1722
     32 C          65.4267   92.2501   11.6197 C.2     1  UNL1        0.0833
     33 N          64.2950   91.9915   10.6696 N.2     1  UNL1       -0.2519
     34 S          68.2525   92.6238   15.1018 S.O2    1  UNL1        0.0265
     35 C          69.1944   92.7484   16.2626 C.3     1  UNL1        0.1834
     36 O          69.4198   92.5298   14.1646 O.2     1  UNL1       -0.1671
     37 O          67.0851   92.7179   16.0391 O.2     1  UNL1       -0.1671
@<TRIPOS>BOND
     1    12    13    1
     2    13    14   ar
     3    14    15   ar
     4    15    16   ar
     5    16     9    1
     6     9    10    1
     7     9    11    1
     8     9     8    1
     9     8     1    1
    10     1     2    1
    11     1    24    1
    12    24    25    1
    13    25    26    2
    14    26    27    1
    15    27    28    2
    16    28    29    1
    17    29    34    1
    18    34    35    1
    19    34    36    2
    20    34    37    2
    21    29    30    2
    22    30    31    1
    23    31    32    1
    24    32    33    2
    25     1     4    1
    26     4     5    1
    27     4     6    1
    28     4     7    1
    29    16    17   ar
    30    17    19    1
    31    19    20   am
    32    19    21    2
    33    17    18   ar
    34    18    13   ar
    35    33    25    1
    36    32    27    1
    37     2     3    1
    38    20    22    1
    39    20    23    1
@<TRIPOS>MOLECULE
*****
 37 39 0 0 0
SMALL
GASTEIGER

@<TRIPOS>ATOM
      1 C          63.8995   87.7969   14.7820 C.3     1  UNL1        0.1812
      2 O          64.0650   88.4078   13.4221 O.3     1  UNL1       -0.3784
      3 H          64.2437   89.3568   13.5135 H       1  UNL1        0.2106
      4 C          63.7340   87.1860   16.1419 C.3     1  UNL1        0.4197
      5 F          63.5684   86.5751   17.5019 F       1  UNL1       -0.1676
      6 F          64.3953   85.9295   15.6581 F       1  UNL1       -0.1676
      7 F          63.0727   88.4424   16.6258 F       1  UNL1       -0.1676
      8 C          64.1341   89.1375   15.4128 C.3     1  UNL1        0.0398
      9 C          64.6022   90.2895   14.5739 C.3     1  UNL1        0.0216
     10 C          66.0244   89.8561   14.7724 C.3     1  UNL1        0.0045
     11 C          63.1800   90.7229   14.3754 C.3     1  UNL1        0.0045
     12 C          66.4747   94.8975   11.2184 C.3     1  UNL1        0.0310
     13 C          66.0066   93.7455   12.0573 C.ar    1  UNL1       -0.0217
     14 C          65.2107   92.6378   11.4330 C.ar    1  UNL1       -0.0046
     15 C          64.7426   91.4858   12.2719 C.ar    1  UNL1       -0.0045
     16 C          65.0703   91.4415   13.7350 C.ar    1  UNL1       -0.0184
     17 C          65.8662   92.5492   14.3592 C.ar    1  UNL1        0.0488
     18 C          66.3343   93.7012   13.5203 C.ar    1  UNL1       -0.0001
     19 C          66.1939   92.5049   15.8224 C.2     1  UNL1        0.2424
     20 N          65.1092   92.6985   16.8401 N.am    1  UNL1       -0.3253
     21 O          67.6064   92.2670   16.2677 O.2     1  UNL1       -0.2704
     22 H          64.1821   92.8546   16.5478 H       1  UNL1        0.1453
     23 H          65.3243   92.6694   17.8004 H       1  UNL1        0.1453
     24 C          63.6650   86.4563   14.1513 C.3     1  UNL1        0.0811
     25 C          63.0973   86.3685   12.7657 C.2     1  UNL1        0.0613
     26 C          63.4639   85.3517   11.7255 C.2     1  UNL1        0.0161
     27 C          62.6566   85.6367   10.4938 C.2     1  UNL1        0.0195
     28 C          62.5977   84.9641    9.1544 C.2     1  UNL1        0.0388
     29 C          61.6733   85.4845    8.0938 C.2     1  UNL1        0.1823
     30 N          60.8078   86.6774    8.3727 N.2     1  UNL1       -0.2468
     31 C          60.8667   87.3500    9.7121 C.3     1  UNL1        0.1722
     32 C          61.7910   86.8297   10.7727 C.2     1  UNL1        0.0833
     33 N          62.0634   87.2819   12.1768 N.2     1  UNL1       -0.2519
     34 S          61.6145   84.8119    6.7543 S.O2    1  UNL1        0.0265
     35 C          61.5557   84.1393    5.4148 C.3     1  UNL1        0.1834
     36 O          63.0840   84.5219    6.8354 O.2     1  UNL1       -0.1671
     37 O          60.1450   85.1019    6.6732 O.2     1  UNL1       -0.1671
@<TRIPOS>BOND
     1    12    13    1
     2    13    14   ar
     3    14    15   ar
     4    15    16   ar
     5    16     9    1
     6     9    10    1
     7     9    11    1
     8     9     8    1
     9     8     1    1
    10     1     2    1
    11     1    24    1
    12    24    25    1
    13    25    26    2
    14    26    27    1
    15    27    28    2
    16    28    29    1
    17    29    34    1
    18    34    35    1
    19    34    36    2
    20    34    37    2
    21    29    30    2
    22    30    31    1
    23    31    32    1
    24    32    33    2
    25     1     4    1
    26     4     5    1
    27     4     6    1
    28     4     7    1
    29    16    17   ar
    30    17    19    1
    31    19    20   am
    32    19    21    2
    33    17    18   ar
    34    18    13   ar
    35    33    25    1
    36    32    27    1
    37     2     3    1
    38    20    22    1
    39    20    23    1
@<TRIPOS>MOLECULE
*****
 37 39 0 0 0
SMALL
GASTEIGER

@<TRIPOS>ATOM
      1 C          61.8325   89.6494   11.5006 C.3     1  UNL1        0.1812
      2 O          62.2565   89.5812   12.9378 O.3     1  UNL1       -0.3784
      3 H          61.9111   88.7682   13.3386 H       1  UNL1        0.2106
      4 C          61.4084   89.7176   10.0635 C.3     1  UNL1        0.4197
      5 F          60.9843   89.7858    8.6262 F       1  UNL1       -0.1676
      6 F          62.8458   89.6702    9.6371 F       1  UNL1       -0.1676
      7 F          59.9711   89.7651   10.4898 F       1  UNL1       -0.1676
      8 C          61.1160   88.3400   11.6498 C.3     1  UNL1        0.0398
      9 C          61.8148   87.0589   11.3029 C.3     1  UNL1        0.0216
     10 C          63.0754   87.5769   11.9296 C.3     1  UNL1        0.0045
     11 C          60.5542   86.5410   10.6763 C.3     1  UNL1        0.0045
     12 C          64.6102   81.9345    9.9152 C.3     1  UNL1        0.0310
     13 C          63.9114   83.2156   10.2621 C.ar    1  UNL1       -0.0217
     14 C          63.3870   84.1028    9.1722 C.ar    1  UNL1       -0.0046
     15 C          62.6881   85.3839    9.5191 C.ar    1  UNL1       -0.0045
     16 C          62.5137   85.7778   10.9560 C.ar    1  UNL1       -0.0184
     17 C          63.0380   84.8906   12.0458 C.ar    1  UNL1        0.0488
     18 C          63.7369   83.6095   11.6989 C.ar    1  UNL1       -0.0001
     19 C          62.8636   85.2845   13.4827 C.2     1  UNL1        0.2424
     20 N          61.7495   84.6911   14.2931 N.am    1  UNL1       -0.3253
     21 O          63.8033   86.2717   14.1091 O.2     1  UNL1       -0.2704
     22 H          61.1328   84.0432   13.8819 H       1  UNL1        0.1453
     23 H          61.6350   84.9496   15.2361 H       1  UNL1        0.1453
     24 C          62.5489   90.9588   11.3514 C.3     1  UNL1        0.0811
     25 C          63.5848   91.3657   12.3570 C.2     1  UNL1        0.0613
     26 C          64.9570   91.8869   12.0477 C.2     1  UNL1        0.0161
     27 C          65.6508   92.1662   13.3479 C.2     1  UNL1        0.0195
     28 C          67.0196   92.6929   13.6623 C.2     1  UNL1        0.0388
     29 C          67.4451   92.8711   15.0897 C.2     1  UNL1        0.1823
     30 N          66.5017   92.5225   16.2026 N.2     1  UNL1       -0.2468
     31 C          65.1329   91.9958   15.8882 C.3     1  UNL1        0.1722
     32 C          64.7074   91.8177   14.4609 C.2     1  UNL1        0.0833
     33 N          63.4306   91.3229   13.8484 N.2     1  UNL1       -0.2519
     34 S          68.8139   93.3978   15.4041 S.O2    1  UNL1        0.0265
     35 C          70.1827   93.9245   15.7185 C.3     1  UNL1        0.1834
     36 O          69.3946   92.5327   14.3250 O.2     1  UNL1       -0.1671
     37 O          68.2332   94.2628   16.4832 O.2     1  UNL1       -0.1671
@<TRIPOS>BOND
     1    12    13    1
     2    13    14   ar
     3    14    15   ar
     4    15    16   ar
     5    16     9    1
     6     9    10    1
     7     9    11    1
     8     9     8    1
     9     8     1    1
    10     1     2    1
    11     1    24    1
    12    24    25    1
    13    25    26    2
    14    26    27    1
    15    27    28    2
    16    28    29    1
    17    29    34    1
    18    34    35    1
    19    34    36    2
    20    34    37    2
    21    29    30    2
    22    30    31    1
    23    31    32    1
    24    32    33    2
    25     1     4    1
    26     4     5    1
    27     4     6    1
    28     4     7    1
    29    16    17   ar
    30    17    19    1
    31    19    20   am
    32    19    21    2
    33    17    18   ar
    34    18    13   ar
    35    33    25    1
    36    32    27    1
    37     2     3    1
    38    20    22    1
    39    20    23    1
