@<TRIPOS>MOLECULE
*****
 35 39 0 0 0
SMALL
GASTEIGER

@<TRIPOS>ATOM
      1 N          56.9759   94.7310   -2.8785 N.ar    1  UNL1       -0.3047
      2 C          57.0693   94.6481   -1.3837 C.ar    1  UNL1        0.1441
      3 N          55.7671   95.1237   -0.8109 N.ar    1  UNL1       -0.2267
      4 C          54.8689   95.5005   -1.9517 C.ar    1  UNL1        0.1010
      5 C          53.4673   96.0332   -1.9919 C.ar    1  UNL1        0.0526
      6 C          52.8128   96.3232   -3.3100 C.ar    1  UNL1        0.1690
      7 F          51.4111   96.8560   -3.3504 F       1  UNL1       -0.2017
      8 C          53.5599   96.0805   -4.5879 C.ar    1  UNL1        0.1689
      9 F          52.9053   96.3706   -5.9061 F       1  UNL1       -0.2017
     10 C          54.9615   95.5478   -4.5477 C.ar    1  UNL1        0.0507
     11 C          55.6160   95.2578   -3.2295 C.ar    1  UNL1        0.0816
     12 C          58.2564   94.1731   -0.5994 C.ar    1  UNL1        0.0342
     13 C          58.6621   92.7300   -0.6532 C.ar    1  UNL1        0.0039
     14 C          59.8493   92.2550    0.1311 C.ar    1  UNL1        0.0115
     15 C          60.6306   93.2230    0.9691 C.ar    1  UNL1        0.0577
     16 CL         61.8177   92.7480    1.7534 Cl      1  UNL1       -0.0822
     17 C          60.2249   94.6661    1.0229 C.ar    1  UNL1        0.0115
     18 C          59.0377   95.1411    0.2386 C.ar    1  UNL1        0.0039
     19 C          58.0533   94.3534   -3.8515 C.3     1  UNL1        0.1628
     20 C          57.7292   93.4817   -5.0283 C.3     1  UNL1        0.0297
     21 C          56.8579   92.2738   -4.8497 C.3     1  UNL1        0.0024
     22 C          56.5337   91.4020   -6.0265 C.3     1  UNL1        0.0001
     23 C          57.0810   91.7382   -7.3821 C.3     1  UNL1        0.0000
     24 C          57.9523   92.9460   -7.5607 C.3     1  UNL1        0.0001
     25 C          58.2764   93.8177   -6.3839 C.3     1  UNL1        0.0024
     26 O          60.0735   96.2093   -3.5340 O.2     1  UNL1       -0.2731
     27 C          59.4549   94.8476   -3.6476 C.2     1  UNL1        0.2431
     28 N          60.5830   93.8684   -3.5119 N.am    1  UNL1       -0.3044
     29 H          60.4037   92.9014   -3.5566 H       1  UNL1        0.1494
     30 C          61.9845   94.3626   -3.3080 C.3     1  UNL1        0.0716
     31 C          62.5322   94.5128   -1.9196 C.3     1  UNL1        0.0196
     32 C          63.9338   95.0070   -1.7157 C.3     1  UNL1        0.0017
     33 C          64.7875   95.3510   -2.9000 C.3     1  UNL1        0.0001
     34 C          64.2397   95.2008   -4.2883 C.3     1  UNL1        0.0017
     35 C          62.8383   94.7066   -4.4923 C.3     1  UNL1        0.0196
@<TRIPOS>BOND
     1    26    27    2
     2    27    28   am
     3    28    30    1
     4    30    31    1
     5    31    32    1
     6    32    33    1
     7    33    34    1
     8    34    35    1
     9    27    19    1
    10    19    20    1
    11    20    21    1
    12    21    22    1
    13    22    23    1
    14    23    24    1
    15    24    25    1
    16    19     1    1
    17     1     2   ar
    18     2    12    1
    19    12    13   ar
    20    13    14   ar
    21    14    15   ar
    22    15    16    1
    23    15    17   ar
    24    17    18   ar
    25     2     3   ar
    26     3     4   ar
    27     4     5   ar
    28     5     6   ar
    29     6     7    1
    30     6     8   ar
    31     8     9    1
    32     8    10   ar
    33    10    11   ar
    34    35    30    1
    35    25    20    1
    36    11     1   ar
    37    18    12   ar
    38    11     4   ar
    39    28    29    1
@<TRIPOS>MOLECULE
*****
 35 39 0 0 0
SMALL
GASTEIGER

@<TRIPOS>ATOM
      1 N          63.9182   89.9040   13.0592 N.ar    1  UNL1       -0.3047
      2 C          64.2837   89.8405   14.5126 C.ar    1  UNL1        0.1441
      3 N          65.1515   91.0236   14.8243 N.ar    1  UNL1       -0.2267
      4 C          65.3224   91.8182   13.5637 C.ar    1  UNL1        0.1010
      5 C          66.0735   93.0825   13.2682 C.ar    1  UNL1        0.0526
      6 C          66.0625   93.6548   11.8817 C.ar    1  UNL1        0.1690
      7 F          66.8137   94.9191   11.5861 F       1  UNL1       -0.2017
      8 C          65.3002   92.9628   10.7907 C.ar    1  UNL1        0.1689
      9 F          65.2892   93.5352    9.4042 F       1  UNL1       -0.2017
     10 C          64.5491   91.6986   11.0862 C.ar    1  UNL1        0.0507
     11 C          64.5601   91.1263   12.4727 C.ar    1  UNL1        0.0816
     12 C          63.8564   88.7802   15.4837 C.ar    1  UNL1        0.0342
     13 C          64.2686   87.3544   15.2667 C.ar    1  UNL1        0.0039
     14 C          63.8413   86.2940   16.2378 C.ar    1  UNL1        0.0115
     15 C          63.0018   86.6594   17.4259 C.ar    1  UNL1        0.0577
     16 CL         62.5744   85.5991   18.3970 Cl      1  UNL1       -0.0822
     17 C          62.5895   88.0852   17.6429 C.ar    1  UNL1        0.0115
     18 C          63.0168   89.1456   16.6717 C.ar    1  UNL1        0.0039
     19 C          63.0612   88.9183   12.3217 C.3     1  UNL1        0.1628
     20 C          61.9329   89.4024   11.4601 C.3     1  UNL1        0.0297
     21 C          60.7440   90.0693   12.0862 C.3     1  UNL1        0.0024
     22 C          59.6156   90.5535   11.2247 C.3     1  UNL1        0.0001
     23 C          59.6761   90.3709    9.7370 C.3     1  UNL1        0.0000
     24 C          60.8649   89.7040    9.1110 C.3     1  UNL1        0.0001
     25 C          61.9933   89.2198    9.9725 C.3     1  UNL1        0.0024
     26 O          64.4453   86.6409   13.0460 O.2     1  UNL1       -0.2731
     27 C          63.3326   87.4482   12.4458 C.2     1  UNL1        0.2431
     28 N          62.3556   86.4555   11.8888 N.am    1  UNL1       -0.3044
     29 H          61.5363   86.7688   11.4419 H       1  UNL1        0.1494
     30 C          62.6271   84.9855   12.0129 C.3     1  UNL1        0.0716
     31 C          63.1393   84.2152   10.8322 C.3     1  UNL1        0.0196
     32 C          63.4108   82.7451   10.9562 C.3     1  UNL1        0.0017
     33 C          63.1701   82.0454   12.2610 C.3     1  UNL1        0.0001
     34 C          62.6578   82.8159   13.4417 C.3     1  UNL1        0.0017
     35 C          62.3863   84.2859   13.3177 C.3     1  UNL1        0.0196
@<TRIPOS>BOND
     1    26    27    2
     2    27    28   am
     3    28    30    1
     4    30    31    1
     5    31    32    1
     6    32    33    1
     7    33    34    1
     8    34    35    1
     9    27    19    1
    10    19    20    1
    11    20    21    1
    12    21    22    1
    13    22    23    1
    14    23    24    1
    15    24    25    1
    16    19     1    1
    17     1     2   ar
    18     2    12    1
    19    12    13   ar
    20    13    14   ar
    21    14    15   ar
    22    15    16    1
    23    15    17   ar
    24    17    18   ar
    25     2     3   ar
    26     3     4   ar
    27     4     5   ar
    28     5     6   ar
    29     6     7    1
    30     6     8   ar
    31     8     9    1
    32     8    10   ar
    33    10    11   ar
    34    35    30    1
    35    25    20    1
    36    11     1   ar
    37    18    12   ar
    38    11     4   ar
    39    28    29    1
@<TRIPOS>MOLECULE
*****
 35 39 0 0 0
SMALL
GASTEIGER

@<TRIPOS>ATOM
      1 N          63.6681   89.1941   12.9286 N.ar    1  UNL1       -0.3047
      2 C          62.9809   89.7114   11.6997 C.ar    1  UNL1        0.1441
      3 N          63.5334   91.0730   11.3982 N.ar    1  UNL1       -0.2267
      4 C          64.5621   91.3972   12.4407 C.ar    1  UNL1        0.1010
      5 C          65.4336   92.5997   12.6509 C.ar    1  UNL1        0.0526
      6 C          66.3885   92.6410   13.8070 C.ar    1  UNL1        0.1690
      7 F          67.2601   93.8435   14.0173 F       1  UNL1       -0.2017
      8 C          66.4717   91.4798   14.7529 C.ar    1  UNL1        0.1689
      9 F          67.4266   91.5211   15.9090 F       1  UNL1       -0.2017
     10 C          65.6001   90.2772   14.5426 C.ar    1  UNL1        0.0507
     11 C          64.6453   90.2359   13.3866 C.ar    1  UNL1        0.0816
     12 C          61.9264   88.9933   10.9109 C.ar    1  UNL1        0.0342
     13 C          60.5183   88.9308   11.4239 C.ar    1  UNL1        0.0039
     14 C          59.4638   88.2127   10.6351 C.ar    1  UNL1        0.0115
     15 C          59.8174   87.5570    9.3332 C.ar    1  UNL1        0.0577
     16 CL         58.7629   86.8389    8.5443 Cl      1  UNL1       -0.0822
     17 C          61.2255   87.6195    8.8201 C.ar    1  UNL1        0.0115
     18 C          62.2800   88.3376    9.6090 C.ar    1  UNL1        0.0039
     19 C          63.4214   87.8678   13.5844 C.3     1  UNL1        0.1628
     20 C          63.3012   87.7799   15.0769 C.3     1  UNL1        0.0297
     21 C          63.3591   86.4440   15.7567 C.3     1  UNL1        0.0024
     22 C          63.2389   86.3560   17.2493 C.3     1  UNL1        0.0001
     23 C          63.0607   87.6040   18.0622 C.3     1  UNL1        0.0000
     24 C          63.0028   88.9399   17.3825 C.3     1  UNL1        0.0001
     25 C          63.1230   89.0279   15.8899 C.3     1  UNL1        0.0024
     26 O          62.7076   86.3388   11.3983 O.2     1  UNL1       -0.2731
     27 C          63.2950   86.6293   12.7476 C.2     1  UNL1        0.2431
     28 N          63.8332   85.3239   13.2539 N.am    1  UNL1       -0.3044
     29 H          64.2694   85.2800   14.1353 H       1  UNL1        0.1494
     30 C          63.7067   84.0855   12.4170 C.3     1  UNL1        0.0716
     31 C          62.7171   83.0233   12.7944 C.3     1  UNL1        0.0196
     32 C          62.5906   81.7848   11.9575 C.3     1  UNL1        0.0017
     33 C          63.4536   81.6085   10.7434 C.3     1  UNL1        0.0001
     34 C          64.4432   82.6708   10.3662 C.3     1  UNL1        0.0017
     35 C          64.5698   83.9093   11.2029 C.3     1  UNL1        0.0196
@<TRIPOS>BOND
     1    26    27    2
     2    27    28   am
     3    28    30    1
     4    30    31    1
     5    31    32    1
     6    32    33    1
     7    33    34    1
     8    34    35    1
     9    27    19    1
    10    19    20    1
    11    20    21    1
    12    21    22    1
    13    22    23    1
    14    23    24    1
    15    24    25    1
    16    19     1    1
    17     1     2   ar
    18     2    12    1
    19    12    13   ar
    20    13    14   ar
    21    14    15   ar
    22    15    16    1
    23    15    17   ar
    24    17    18   ar
    25     2     3   ar
    26     3     4   ar
    27     4     5   ar
    28     5     6   ar
    29     6     7    1
    30     6     8   ar
    31     8     9    1
    32     8    10   ar
    33    10    11   ar
    34    35    30    1
    35    25    20    1
    36    11     1   ar
    37    18    12   ar
    38    11     4   ar
    39    28    29    1
@<TRIPOS>MOLECULE
*****
 35 39 0 0 0
SMALL
GASTEIGER

@<TRIPOS>ATOM
      1 N          63.1790   85.9439   12.9919 N.ar    1  UNL1       -0.3047
      2 C          63.4873   85.0527   14.1584 C.ar    1  UNL1        0.1441
      3 N          64.0190   85.9098   15.2686 N.ar    1  UNL1       -0.2267
      4 C          64.0393   87.3307   14.7883 C.ar    1  UNL1        0.1010
      5 C          64.4635   88.6080   15.4504 C.ar    1  UNL1        0.0526
      6 C          64.3685   89.9064   14.7054 C.ar    1  UNL1        0.1690
      7 F          64.7927   91.1838   15.3675 F       1  UNL1       -0.2017
      8 C          63.8494   89.9275   13.2983 C.ar    1  UNL1        0.1689
      9 F          63.7544   91.2259   12.5532 F       1  UNL1       -0.2017
     10 C          63.4252   88.6501   12.6361 C.ar    1  UNL1        0.0507
     11 C          63.5202   87.3517   13.3812 C.ar    1  UNL1        0.0816
     12 C          63.2972   83.5656   14.2063 C.ar    1  UNL1        0.0342
     13 C          64.4429   82.6523   13.8849 C.ar    1  UNL1        0.0039
     14 C          64.2528   81.1652   13.9327 C.ar    1  UNL1        0.0115
     15 C          62.9171   80.5913   14.3020 C.ar    1  UNL1        0.0577
     16 CL         62.7270   79.1041   14.3499 Cl      1  UNL1       -0.0822
     17 C          61.7714   81.5045   14.6234 C.ar    1  UNL1        0.0115
     18 C          61.9615   82.9917   14.5756 C.ar    1  UNL1        0.0039
     19 C          62.6266   85.5044   11.6684 C.3     1  UNL1        0.1628
     20 C          63.0179   84.1740   11.0968 C.3     1  UNL1        0.0297
     21 C          62.1231   82.9847   11.2842 C.3     1  UNL1        0.0024
     22 C          62.5144   81.6542   10.7125 C.3     1  UNL1        0.0001
     23 C          63.8005   81.5130    9.9534 C.3     1  UNL1        0.0000
     24 C          64.6952   82.7023    9.7661 C.3     1  UNL1        0.0001
     25 C          64.3039   84.0328   10.3377 C.3     1  UNL1        0.0024
     26 O          60.5420   87.2819   11.3200 O.2     1  UNL1       -0.2731
     27 C          61.6827   86.3954   10.9165 C.2     1  UNL1        0.2431
     28 N          61.7947   86.5187    9.4257 N.am    1  UNL1       -0.3044
     29 H          62.4877   86.0149    8.9408 H       1  UNL1        0.1494
     30 C          60.8508   87.4096    8.6739 C.3     1  UNL1        0.0716
     31 C          59.8221   86.8117    7.7606 C.3     1  UNL1        0.0196
     32 C          58.8781   87.7027    7.0087 C.3     1  UNL1        0.0017
     33 C          58.9630   89.1915    7.1702 C.3     1  UNL1        0.0001
     34 C          59.9917   89.7894    8.0835 C.3     1  UNL1        0.0017
     35 C          60.9357   88.8985    8.8354 C.3     1  UNL1        0.0196
@<TRIPOS>BOND
     1    26    27    2
     2    27    28   am
     3    28    30    1
     4    30    31    1
     5    31    32    1
     6    32    33    1
     7    33    34    1
     8    34    35    1
     9    27    19    1
    10    19    20    1
    11    20    21    1
    12    21    22    1
    13    22    23    1
    14    23    24    1
    15    24    25    1
    16    19     1    1
    17     1     2   ar
    18     2    12    1
    19    12    13   ar
    20    13    14   ar
    21    14    15   ar
    22    15    16    1
    23    15    17   ar
    24    17    18   ar
    25     2     3   ar
    26     3     4   ar
    27     4     5   ar
    28     5     6   ar
    29     6     7    1
    30     6     8   ar
    31     8     9    1
    32     8    10   ar
    33    10    11   ar
    34    35    30    1
    35    25    20    1
    36    11     1   ar
    37    18    12   ar
    38    11     4   ar
    39    28    29    1
@<TRIPOS>MOLECULE
*****
 35 39 0 0 0
SMALL
GASTEIGER

@<TRIPOS>ATOM
      1 N          62.1865   87.0045   11.4345 N.ar    1  UNL1       -0.3047
      2 C          61.6451   86.5473   10.1125 C.ar    1  UNL1        0.1441
      3 N          62.0011   85.1002    9.9414 N.ar    1  UNL1       -0.2267
      4 C          62.7625   84.6631   11.1577 C.ar    1  UNL1        0.1010
      5 C          63.3662   83.3455   11.5441 C.ar    1  UNL1        0.0526
      6 C          64.0845   83.2049   12.8534 C.ar    1  UNL1        0.1690
      7 F          64.6883   81.8872   13.2399 F       1  UNL1       -0.2017
      8 C          64.1991   84.3818   13.7762 C.ar    1  UNL1        0.1689
      9 F          64.9174   84.2411   15.0855 F       1  UNL1       -0.2017
     10 C          63.5953   85.6994   13.3898 C.ar    1  UNL1        0.0507
     11 C          62.8770   85.8401   12.0805 C.ar    1  UNL1        0.0816
     12 C          60.8818   87.3892    9.1335 C.ar    1  UNL1        0.0342
     13 C          61.2297   88.8378    8.9589 C.ar    1  UNL1        0.0039
     14 C          60.4665   89.6797    7.9798 C.ar    1  UNL1        0.0115
     15 C          59.3553   89.0731    7.1754 C.ar    1  UNL1        0.0577
     16 CL         58.5920   89.9150    6.1964 Cl      1  UNL1       -0.0822
     17 C          59.0074   87.6245    7.3500 C.ar    1  UNL1        0.0115
     18 C          59.7707   86.7826    8.3290 C.ar    1  UNL1        0.0039
     19 C          62.0596   88.3841   12.0097 C.3     1  UNL1        0.1628
     20 C          60.7359   89.0889   11.9830 C.3     1  UNL1        0.0297
     21 C          60.6402   90.4848   11.4420 C.3     1  UNL1        0.0024
     22 C          59.3165   91.1897   11.4153 C.3     1  UNL1        0.0001
     23 C          58.0884   90.4989   11.9297 C.3     1  UNL1        0.0000
     24 C          58.1840   89.1032   12.4707 C.3     1  UNL1        0.0001
     25 C          59.5078   88.3982   12.4974 C.3     1  UNL1        0.0024
     26 O          64.3952   88.5909   13.4687 O.2     1  UNL1       -0.2731
     27 C          63.2566   89.0587   12.6116 C.2     1  UNL1        0.2431
     28 N          63.4853   90.5236   12.3839 N.am    1  UNL1       -0.3044
     29 H          62.8498   91.0423   11.8395 H       1  UNL1        0.1494
     30 C          64.6822   91.1982   12.9858 C.3     1  UNL1        0.0716
     31 C          64.9370   91.0978   14.4606 C.3     1  UNL1        0.0196
     32 C          66.1340   91.7724   15.0626 C.3     1  UNL1        0.0017
     33 C          67.0761   92.5474   14.1897 C.3     1  UNL1        0.0001
     34 C          66.8212   92.6477   12.7149 C.3     1  UNL1        0.0017
     35 C          65.6243   91.9731   12.1129 C.3     1  UNL1        0.0196
@<TRIPOS>BOND
     1    26    27    2
     2    27    28   am
     3    28    30    1
     4    30    31    1
     5    31    32    1
     6    32    33    1
     7    33    34    1
     8    34    35    1
     9    27    19    1
    10    19    20    1
    11    20    21    1
    12    21    22    1
    13    22    23    1
    14    23    24    1
    15    24    25    1
    16    19     1    1
    17     1     2   ar
    18     2    12    1
    19    12    13   ar
    20    13    14   ar
    21    14    15   ar
    22    15    16    1
    23    15    17   ar
    24    17    18   ar
    25     2     3   ar
    26     3     4   ar
    27     4     5   ar
    28     5     6   ar
    29     6     7    1
    30     6     8   ar
    31     8     9    1
    32     8    10   ar
    33    10    11   ar
    34    35    30    1
    35    25    20    1
    36    11     1   ar
    37    18    12   ar
    38    11     4   ar
    39    28    29    1
@<TRIPOS>MOLECULE
*****
 35 39 0 0 0
SMALL
GASTEIGER

@<TRIPOS>ATOM
      1 N          63.4602   87.6808   12.9921 N.ar    1  UNL1       -0.3047
      2 C          64.0911   87.8922   14.3365 C.ar    1  UNL1        0.1441
      3 N          64.4932   86.5514   14.8756 N.ar    1  UNL1       -0.2267
      4 C          64.1109   85.5115   13.8645 C.ar    1  UNL1        0.1010
      5 C          64.2616   84.0192   13.8534 C.ar    1  UNL1        0.0526
      6 C          63.7739   83.2248   12.6782 C.ar    1  UNL1        0.1690
      7 F          63.9246   81.7324   12.6671 F       1  UNL1       -0.2017
      8 C          63.1354   83.9229   11.5141 C.ar    1  UNL1        0.1689
      9 F          62.6477   83.1285   10.3389 F       1  UNL1       -0.2017
     10 C          62.9847   85.4152   11.5252 C.ar    1  UNL1        0.0507
     11 C          63.4724   86.2095   12.7004 C.ar    1  UNL1        0.0816
     12 C          64.2856   89.2124   15.0214 C.ar    1  UNL1        0.0342
     13 C          65.5087   90.0324   14.7358 C.ar    1  UNL1        0.0039
     14 C          65.7033   91.3526   15.4208 C.ar    1  UNL1        0.0115
     15 C          64.6748   91.8529   16.3912 C.ar    1  UNL1        0.0577
     16 CL         64.8693   93.1731   17.0762 Cl      1  UNL1       -0.0822
     17 C          63.4517   91.0329   16.6768 C.ar    1  UNL1        0.0115
     18 C          63.2571   89.7126   15.9919 C.ar    1  UNL1        0.0039
     19 C          62.9131   88.7527   12.0966 C.3     1  UNL1        0.1628
     20 C          61.8449   88.4219   11.0969 C.3     1  UNL1        0.0297
     21 C          60.4007   88.6250   11.4476 C.3     1  UNL1        0.0024
     22 C          59.3324   88.2942   10.4479 C.3     1  UNL1        0.0001
     23 C          59.7084   87.7603    9.0975 C.3     1  UNL1        0.0000
     24 C          61.1526   87.5572    8.7468 C.3     1  UNL1        0.0001
     25 C          62.2208   87.8880    9.7465 C.3     1  UNL1        0.0024
     26 O          63.0712   91.3421   13.0434 O.2     1  UNL1       -0.2731
     27 C          63.4343   90.1554   12.2008 C.2     1  UNL1        0.2431
     28 N          64.5680   90.6012   11.3256 N.am    1  UNL1       -0.3044
     29 H          64.9701   89.9732   10.6828 H       1  UNL1        0.1494
     30 C          65.0891   92.0039   11.4299 C.3     1  UNL1        0.0716
     31 C          64.8611   92.9739   10.3087 C.3     1  UNL1        0.0196
     32 C          65.3822   94.3767   10.4129 C.3     1  UNL1        0.0017
     33 C          66.1313   94.8094   11.6383 C.3     1  UNL1        0.0001
     34 C          66.3593   93.8393   12.7595 C.3     1  UNL1        0.0017
     35 C          65.8382   92.4366   12.6553 C.3     1  UNL1        0.0196
@<TRIPOS>BOND
     1    26    27    2
     2    27    28   am
     3    28    30    1
     4    30    31    1
     5    31    32    1
     6    32    33    1
     7    33    34    1
     8    34    35    1
     9    27    19    1
    10    19    20    1
    11    20    21    1
    12    21    22    1
    13    22    23    1
    14    23    24    1
    15    24    25    1
    16    19     1    1
    17     1     2   ar
    18     2    12    1
    19    12    13   ar
    20    13    14   ar
    21    14    15   ar
    22    15    16    1
    23    15    17   ar
    24    17    18   ar
    25     2     3   ar
    26     3     4   ar
    27     4     5   ar
    28     5     6   ar
    29     6     7    1
    30     6     8   ar
    31     8     9    1
    32     8    10   ar
    33    10    11   ar
    34    35    30    1
    35    25    20    1
    36    11     1   ar
    37    18    12   ar
    38    11     4   ar
    39    28    29    1
@<TRIPOS>MOLECULE
*****
 35 39 0 0 0
SMALL
GASTEIGER

@<TRIPOS>ATOM
      1 N          63.8340   89.0796   12.9755 N.ar    1  UNL1       -0.3047
      2 C          64.7707   89.1542   14.1447 C.ar    1  UNL1        0.1441
      3 N          64.9122   87.7737   14.7140 N.ar    1  UNL1       -0.2267
      4 C          64.0630   86.8459   13.8967 C.ar    1  UNL1        0.1010
      5 C          63.8104   85.3704   13.9920 C.ar    1  UNL1        0.0526
      6 C          62.8914   84.7020   13.0129 C.ar    1  UNL1        0.1690
      7 F          62.6388   83.2265   13.1082 F       1  UNL1       -0.2017
      8 C          62.2250   85.5092   11.9384 C.ar    1  UNL1        0.1689
      9 F          61.3060   84.8407   10.9593 F       1  UNL1       -0.2017
     10 C          62.4776   86.9846   11.8431 C.ar    1  UNL1        0.0507
     11 C          63.3966   87.6530   12.8222 C.ar    1  UNL1        0.0816
     12 C          65.4471   90.3919   14.6550 C.ar    1  UNL1        0.0342
     13 C          66.8465   90.7146   14.2219 C.ar    1  UNL1        0.0039
     14 C          67.5229   91.9524   14.7322 C.ar    1  UNL1        0.0115
     15 C          66.8000   92.8675   15.6755 C.ar    1  UNL1        0.0577
     16 CL         67.4764   94.1052   16.1858 Cl      1  UNL1       -0.0822
     17 C          65.4006   92.5448   16.1086 C.ar    1  UNL1        0.0115
     18 C          64.7242   91.3070   15.5983 C.ar    1  UNL1        0.0039
     19 C          63.4093   90.2297   12.1113 C.3     1  UNL1        0.1628
     20 C          62.0582   90.2194   11.4598 C.3     1  UNL1        0.0297
     21 C          61.9441   90.0646    9.9721 C.3     1  UNL1        0.0024
     22 C          60.5931   90.0544    9.3206 C.3     1  UNL1        0.0001
     23 C          59.3561   90.1989   10.1567 C.3     1  UNL1        0.0000
     24 C          59.4702   90.3536   11.6443 C.3     1  UNL1        0.0001
     25 C          60.8212   90.3639   12.2959 C.3     1  UNL1        0.0024
     26 O          64.8304   92.5028   12.7745 O.2     1  UNL1       -0.2731
     27 C          64.3357   91.3902   11.8986 C.2     1  UNL1        0.2431
     28 N          64.9780   91.6014   10.5596 N.am    1  UNL1       -0.3044
     29 H          64.7917   90.9784    9.8204 H       1  UNL1        0.1494
     30 C          65.9044   92.7618   10.3470 C.3     1  UNL1        0.0716
     31 C          65.4183   94.1617   10.5793 C.3     1  UNL1        0.0196
     32 C          66.3447   95.3223   10.3667 C.3     1  UNL1        0.0017
     33 C          67.7570   95.0829    9.9217 C.3     1  UNL1        0.0001
     34 C          68.2430   93.6829    9.6894 C.3     1  UNL1        0.0017
     35 C          67.3167   92.5224    9.9020 C.3     1  UNL1        0.0196
@<TRIPOS>BOND
     1    26    27    2
     2    27    28   am
     3    28    30    1
     4    30    31    1
     5    31    32    1
     6    32    33    1
     7    33    34    1
     8    34    35    1
     9    27    19    1
    10    19    20    1
    11    20    21    1
    12    21    22    1
    13    22    23    1
    14    23    24    1
    15    24    25    1
    16    19     1    1
    17     1     2   ar
    18     2    12    1
    19    12    13   ar
    20    13    14   ar
    21    14    15   ar
    22    15    16    1
    23    15    17   ar
    24    17    18   ar
    25     2     3   ar
    26     3     4   ar
    27     4     5   ar
    28     5     6   ar
    29     6     7    1
    30     6     8   ar
    31     8     9    1
    32     8    10   ar
    33    10    11   ar
    34    35    30    1
    35    25    20    1
    36    11     1   ar
    37    18    12   ar
    38    11     4   ar
    39    28    29    1
@<TRIPOS>MOLECULE
*****
 35 39 0 0 0
SMALL
GASTEIGER

@<TRIPOS>ATOM
      1 N          62.8522   83.6902   12.8848 N.ar    1  UNL1       -0.3047
      2 C          62.7175   83.4652   14.3617 C.ar    1  UNL1        0.1441
      3 N          62.6125   81.9876   14.5977 N.ar    1  UNL1       -0.2267
      4 C          62.6823   81.2994   13.2668 C.ar    1  UNL1        0.1010
      5 C          62.6300   79.8506   12.8820 C.ar    1  UNL1        0.0526
      6 C          62.7260   79.4540   11.4386 C.ar    1  UNL1        0.1690
      7 F          62.6738   78.0051   11.0539 F       1  UNL1       -0.2017
      8 C          62.8742   80.5062   10.3800 C.ar    1  UNL1        0.1689
      9 F          62.9701   80.1096    8.9365 F       1  UNL1       -0.2017
     10 C          62.9264   81.9551   10.7647 C.ar    1  UNL1        0.0507
     11 C          62.8305   82.3517   12.2081 C.ar    1  UNL1        0.0816
     12 C          62.6923   84.5307   15.4172 C.ar    1  UNL1        0.0342
     13 C          61.4119   85.2468   15.7295 C.ar    1  UNL1        0.0039
     14 C          61.3866   86.3123   16.7850 C.ar    1  UNL1        0.0115
     15 C          62.6418   86.6617   17.5282 C.ar    1  UNL1        0.0577
     16 CL         62.6166   87.7272   18.5837 Cl      1  UNL1       -0.0822
     17 C          63.9223   85.9456   17.2158 C.ar    1  UNL1        0.0115
     18 C          63.9475   84.8801   16.1603 C.ar    1  UNL1        0.0039
     19 C          62.9854   85.0202   12.2041 C.3     1  UNL1        0.1628
     20 C          62.5454   85.1808   10.7792 C.3     1  UNL1        0.0297
     21 C          61.2365   85.8444   10.4686 C.3     1  UNL1        0.0024
     22 C          60.7964   86.0051    9.0436 C.3     1  UNL1        0.0001
     23 C          61.6653   85.5022    7.9291 C.3     1  UNL1        0.0000
     24 C          62.9742   84.8386    8.2397 C.3     1  UNL1        0.0001
     25 C          63.4143   84.6779    9.6646 C.3     1  UNL1        0.0024
     26 O          64.6177   86.3378   14.0001 O.2     1  UNL1       -0.2731
     27 C          63.5585   86.1897   12.9484 C.2     1  UNL1        0.2431
     28 N          63.0492   87.5742   12.6768 N.am    1  UNL1       -0.3044
     29 H          62.3387   87.7153   12.0100 H       1  UNL1        0.1494
     30 C          63.6224   88.7435   13.4211 C.3     1  UNL1        0.0716
     31 C          64.0606   89.9672   12.6724 C.3     1  UNL1        0.0196
     32 C          64.6339   91.1367   13.4167 C.3     1  UNL1        0.0017
     33 C          64.7688   91.0824   14.9096 C.3     1  UNL1        0.0001
     34 C          64.3305   89.8587   15.6582 C.3     1  UNL1        0.0017
     35 C          63.7573   88.6893   14.9140 C.3     1  UNL1        0.0196
@<TRIPOS>BOND
     1    26    27    2
     2    27    28   am
     3    28    30    1
     4    30    31    1
     5    31    32    1
     6    32    33    1
     7    33    34    1
     8    34    35    1
     9    27    19    1
    10    19    20    1
    11    20    21    1
    12    21    22    1
    13    22    23    1
    14    23    24    1
    15    24    25    1
    16    19     1    1
    17     1     2   ar
    18     2    12    1
    19    12    13   ar
    20    13    14   ar
    21    14    15   ar
    22    15    16    1
    23    15    17   ar
    24    17    18   ar
    25     2     3   ar
    26     3     4   ar
    27     4     5   ar
    28     5     6   ar
    29     6     7    1
    30     6     8   ar
    31     8     9    1
    32     8    10   ar
    33    10    11   ar
    34    35    30    1
    35    25    20    1
    36    11     1   ar
    37    18    12   ar
    38    11     4   ar
    39    28    29    1
@<TRIPOS>MOLECULE
*****
 35 39 0 0 0
SMALL
GASTEIGER

@<TRIPOS>ATOM
      1 N          57.2745   93.3735   -3.3527 N.ar    1  UNL1       -0.3047
      2 C          57.4309   93.1339   -1.8802 C.ar    1  UNL1        0.1441
      3 N          56.6938   91.8739   -1.5349 N.ar    1  UNL1       -0.2267
      4 C          56.0819   91.3349   -2.7938 C.ar    1  UNL1        0.1010
      5 C          55.2443   90.1198   -3.0623 C.ar    1  UNL1        0.0526
      6 C          54.7656   89.8316   -4.4543 C.ar    1  UNL1        0.1690
      7 F          53.9280   88.6165   -4.7228 F       1  UNL1       -0.2017
      8 C          55.1245   90.7584   -5.5778 C.ar    1  UNL1        0.1689
      9 F          54.6457   90.4701   -6.9699 F       1  UNL1       -0.2017
     10 C          55.9621   91.9734   -5.3093 C.ar    1  UNL1        0.0507
     11 C          56.4408   92.2617   -3.9173 C.ar    1  UNL1        0.0816
     12 C          58.1909   94.0018   -0.9215 C.ar    1  UNL1        0.0342
     13 C          59.2084   93.3926   -0.0032 C.ar    1  UNL1        0.0039
     14 C          59.9684   94.2605    0.9555 C.ar    1  UNL1        0.0115
     15 C          59.7108   95.7377    0.9959 C.ar    1  UNL1        0.0577
     16 CL         60.4708   96.6056    1.9546 Cl      1  UNL1       -0.0822
     17 C          58.6932   96.3469    0.0776 C.ar    1  UNL1        0.0115
     18 C          57.9333   95.4789   -0.8811 C.ar    1  UNL1        0.0039
     19 C          57.8506   94.5231   -4.1250 C.3     1  UNL1        0.1628
     20 C          56.9841   95.3007   -5.0707 C.3     1  UNL1        0.0297
     21 C          57.3995   95.4694   -6.5022 C.3     1  UNL1        0.0024
     22 C          56.5330   96.2470   -7.4480 C.3     1  UNL1        0.0001
     23 C          55.2511   96.8559   -6.9623 C.3     1  UNL1        0.0000
     24 C          54.8357   96.6873   -5.5309 C.3     1  UNL1        0.0001
     25 C          55.7022   95.9097   -4.5851 C.3     1  UNL1        0.0024
     26 O          60.0402   96.1961   -3.9417 O.2     1  UNL1       -0.2731
     27 C          59.2934   94.8952   -3.9515 C.2     1  UNL1        0.2431
     28 N          60.3224   93.8262   -3.7315 N.am    1  UNL1       -0.3044
     29 H          60.0509   92.8804   -3.7010 H       1  UNL1        0.1494
     30 C          61.7651   94.1983   -3.5581 C.3     1  UNL1        0.0716
     31 C          62.6706   94.2671   -4.7520 C.3     1  UNL1        0.0196
     32 C          64.1134   94.6392   -4.5786 C.3     1  UNL1        0.0017
     33 C          64.6506   94.9426   -3.2114 C.3     1  UNL1        0.0001
     34 C          63.7450   94.8737   -2.0175 C.3     1  UNL1        0.0017
     35 C          62.3023   94.5016   -2.1908 C.3     1  UNL1        0.0196
@<TRIPOS>BOND
     1    26    27    2
     2    27    28   am
     3    28    30    1
     4    30    31    1
     5    31    32    1
     6    32    33    1
     7    33    34    1
     8    34    35    1
     9    27    19    1
    10    19    20    1
    11    20    21    1
    12    21    22    1
    13    22    23    1
    14    23    24    1
    15    24    25    1
    16    19     1    1
    17     1     2   ar
    18     2    12    1
    19    12    13   ar
    20    13    14   ar
    21    14    15   ar
    22    15    16    1
    23    15    17   ar
    24    17    18   ar
    25     2     3   ar
    26     3     4   ar
    27     4     5   ar
    28     5     6   ar
    29     6     7    1
    30     6     8   ar
    31     8     9    1
    32     8    10   ar
    33    10    11   ar
    34    35    30    1
    35    25    20    1
    36    11     1   ar
    37    18    12   ar
    38    11     4   ar
    39    28    29    1
