@<TRIPOS>MOLECULE
*****
 31 34 0 0 0
SMALL
GASTEIGER

@<TRIPOS>ATOM
      1 C          59.3954   89.2315    7.1050 C.ar    1  UNL1        0.0180
      2 C          58.9153   87.8187    7.2580 C.ar    1  UNL1        0.0029
      3 C          59.5665   86.9093    8.2575 C.ar    1  UNL1        0.0189
      4 C          60.6978   87.4128    9.1040 C.ar    1  UNL1        0.0789
      5 C          61.1779   88.8256    8.9510 C.ar    1  UNL1        0.0669
      6 C          60.5267   89.7349    7.9515 C.ar    1  UNL1        0.0174
      7 N          61.3490   86.5034   10.1035 N.ar    1  UNL1       -0.2852
      8 C          62.2983   85.3850    9.7907 C.ar    1  UNL1        0.1023
      9 C          62.7013   84.7432   11.0852 C.ar    1  UNL1        0.1196
     10 N          62.0009   85.4649   12.1981 N.ar    1  UNL1       -0.2220
     11 C          61.1652   86.5528   11.5914 C.ar    1  UNL1        0.1829
     12 N          62.3093   89.3291    9.7975 N.am    1  UNL1       -0.2792
     13 C          62.0241   90.0023   11.1073 C.2     1  UNL1        0.2510
     14 O          60.6075   90.1720   11.5705 O.2     1  UNL1       -0.2698
     15 H          63.2390   89.2177    9.4935 H       1  UNL1        0.1552
     16 C          63.1554   90.5058   11.9538 C.ar    1  UNL1        0.0728
     17 C          63.4409   89.8676   13.2809 C.ar    1  UNL1        0.0076
     18 C          64.5722   90.3711   14.1273 C.ar    1  UNL1        0.0198
     19 C          65.4181   91.5128   13.6467 C.ar    1  UNL1        0.0873
     20 N          65.1326   92.1511   12.3197 N.ar    1  UNL1       -0.2432
     21 C          64.0013   91.6476   11.4732 C.ar    1  UNL1        0.1033
     22 C          66.5494   92.0164   14.4933 C.ar    1  UNL1        0.0471
     23 C          66.4292   92.5959   15.8716 C.ar    1  UNL1        0.0085
     24 C          67.8050   92.9664   16.3403 C.ar    1  UNL1        0.0075
     25 C          68.7756   92.6159   15.2516 C.ar    1  UNL1        0.0355
     26 S          67.9996   92.0288   14.1101 S.2     1  UNL1       -0.0849
     27 N          59.5856   91.0453    5.2546 N.2     1  UNL1       -0.0873
     28 C          58.7442   90.1408    6.1055 C.2     1  UNL1        0.0974
     29 C          57.2516   90.1457    5.9568 C.3     1  UNL1        0.0555
     30 C          59.7773   92.7364    3.2916 C.3     1  UNL1        0.2885
     31 O          58.9344   91.9546    4.2551 O.2     1  UNL1       -0.3734
@<TRIPOS>BOND
     1    30    31    1
     2    31    27    1
     3    27    28    2
     4    28    29    1
     5    28     1    1
     6     1     2   ar
     7     2     3   ar
     8     3     4   ar
     9     4     7    1
    10     7     8   ar
    11     8     9   ar
    12     9    10   ar
    13    10    11   ar
    14     4     5   ar
    15     5    12    1
    16    12    13   am
    17    13    14    2
    18    13    16    1
    19    16    17   ar
    20    17    18   ar
    21    18    19   ar
    22    19    22    1
    23    22    23   ar
    24    23    24   ar
    25    24    25   ar
    26    25    26   ar
    27    19    20   ar
    28    20    21   ar
    29     5     6   ar
    30     6     1   ar
    31    11     7   ar
    32    21    16   ar
    33    26    22   ar
    34    12    15    1
@<TRIPOS>MOLECULE
*****
 31 34 0 0 0
SMALL
GASTEIGER

@<TRIPOS>ATOM
      1 C          63.8484   84.4379   13.5959 C.ar    1  UNL1        0.0180
      2 C          64.5173   85.1177   14.7537 C.ar    1  UNL1        0.0029
      3 C          64.5074   86.6145   14.8522 C.ar    1  UNL1        0.0189
      4 C          63.8287   87.4314   13.7930 C.ar    1  UNL1        0.0789
      5 C          63.1598   86.7515   12.6353 C.ar    1  UNL1        0.0669
      6 C          63.1697   85.2548   12.5367 C.ar    1  UNL1        0.0174
      7 N          63.8188   88.9281   13.8916 N.ar    1  UNL1       -0.2852
      8 C          63.9013   89.8880   12.7419 C.ar    1  UNL1        0.1023
      9 C          63.8581   91.2809   13.2969 C.ar    1  UNL1        0.1196
     10 N          63.7490   91.1819   14.7896 N.ar    1  UNL1       -0.2220
     11 C          63.7246   89.7278   15.1571 C.ar    1  UNL1        0.1829
     12 N          62.4810   87.5684   11.5760 N.am    1  UNL1       -0.2792
     13 C          61.5974   86.9002   10.5648 C.2     1  UNL1        0.2510
     14 O          61.3924   85.4150   10.6129 O.2     1  UNL1       -0.2698
     15 H          62.6155   88.5432   11.5444 H       1  UNL1        0.1552
     16 C          60.9186   87.7171    9.5055 C.ar    1  UNL1        0.0728
     17 C          60.1051   87.0401    8.4426 C.ar    1  UNL1        0.0076
     18 C          59.4263   87.8570    7.3834 C.ar    1  UNL1        0.0198
     19 C          59.5611   89.3509    7.3871 C.ar    1  UNL1        0.0873
     20 N          60.3746   90.0279    8.4500 N.ar    1  UNL1       -0.2432
     21 C          61.0534   89.2110    9.5092 C.ar    1  UNL1        0.1033
     22 C          58.8824   90.1678    6.3278 C.ar    1  UNL1        0.0471
     23 C          57.4123   90.1786    6.0296 C.ar    1  UNL1        0.0085
     24 C          57.1758   91.1347    4.8983 C.ar    1  UNL1        0.0075
     25 C          58.4998   91.7149    4.4974 C.ar    1  UNL1        0.0355
     26 S          59.5544   91.1173    5.3809 S.2     1  UNL1       -0.0849
     27 N          63.1417   82.1171   14.5256 N.2     1  UNL1       -0.0873
     28 C          63.8583   82.9412   13.4974 C.2     1  UNL1        0.0974
     29 C          64.5848   82.2685   12.3706 C.3     1  UNL1        0.0555
     30 C          62.2238   79.9253   13.4751 C.3     1  UNL1        0.2885
     31 O          63.1516   80.6204   14.4271 O.2     1  UNL1       -0.3734
@<TRIPOS>BOND
     1    30    31    1
     2    31    27    1
     3    27    28    2
     4    28    29    1
     5    28     1    1
     6     1     2   ar
     7     2     3   ar
     8     3     4   ar
     9     4     7    1
    10     7     8   ar
    11     8     9   ar
    12     9    10   ar
    13    10    11   ar
    14     4     5   ar
    15     5    12    1
    16    12    13   am
    17    13    14    2
    18    13    16    1
    19    16    17   ar
    20    17    18   ar
    21    18    19   ar
    22    19    22    1
    23    22    23   ar
    24    23    24   ar
    25    24    25   ar
    26    25    26   ar
    27    19    20   ar
    28    20    21   ar
    29     5     6   ar
    30     6     1   ar
    31    11     7   ar
    32    21    16   ar
    33    26    22   ar
    34    12    15    1
@<TRIPOS>MOLECULE
*****
 31 34 0 0 0
SMALL
GASTEIGER

@<TRIPOS>ATOM
      1 C          65.2446   91.3788   13.9626 C.ar    1  UNL1        0.0180
      2 C          64.6915   92.3554   12.9675 C.ar    1  UNL1        0.0029
      3 C          63.6765   91.9051   11.9591 C.ar    1  UNL1        0.0189
      4 C          63.2146   90.4781   11.9457 C.ar    1  UNL1        0.0789
      5 C          63.7676   89.5014   12.9408 C.ar    1  UNL1        0.0669
      6 C          64.7826   89.9518   13.9493 C.ar    1  UNL1        0.0174
      7 N          62.1996   90.0277   10.9373 N.ar    1  UNL1       -0.2852
      8 C          60.8025   90.5552   10.7964 C.ar    1  UNL1        0.1023
      9 C          60.1429   89.8243    9.6647 C.ar    1  UNL1        0.1196
     10 N          61.1324   88.8450    9.1062 N.ar    1  UNL1       -0.2220
     11 C          62.4035   88.9707    9.8927 C.ar    1  UNL1        0.1829
     12 N          63.3057   88.0743   12.9275 N.am    1  UNL1       -0.2792
     13 C          63.8962   87.0859   13.8889 C.2     1  UNL1        0.2510
     14 O          64.9486   87.5245   14.8636 O.2     1  UNL1       -0.2698
     15 H          62.6149   87.7865   12.2878 H       1  UNL1        0.1552
     16 C          63.4342   85.6588   13.8756 C.ar    1  UNL1        0.0728
     17 C          63.1474   84.9755   12.5715 C.ar    1  UNL1        0.0076
     18 C          62.6855   83.5484   12.5583 C.ar    1  UNL1        0.0198
     19 C          62.5104   82.8048   13.8491 C.ar    1  UNL1        0.0873
     20 N          62.7972   83.4881   15.1532 N.ar    1  UNL1       -0.2432
     21 C          63.2591   84.9152   15.1665 C.ar    1  UNL1        0.1033
     22 C          62.0484   81.3777   13.8358 C.ar    1  UNL1        0.0471
     23 C          60.6753   80.8921   14.1947 C.ar    1  UNL1        0.0085
     24 C          60.6567   79.4000   14.0420 C.ar    1  UNL1        0.0075
     25 C          62.0184   78.9635   13.5887 C.ar    1  UNL1        0.0355
     26 S          62.8784   80.1857   13.4613 S.2     1  UNL1       -0.0849
     27 N          67.7235   91.6917   14.6746 N.2     1  UNL1       -0.0873
     28 C          66.2596   91.8292   14.9711 C.2     1  UNL1        0.0974
     29 C          65.8106   92.4170   16.2760 C.3     1  UNL1        0.0555
     30 C          69.0955   93.5951   15.7904 C.3     1  UNL1        0.2885
     31 O          68.7385   92.1421   15.6830 O.2     1  UNL1       -0.3734
@<TRIPOS>BOND
     1    30    31    1
     2    31    27    1
     3    27    28    2
     4    28    29    1
     5    28     1    1
     6     1     2   ar
     7     2     3   ar
     8     3     4   ar
     9     4     7    1
    10     7     8   ar
    11     8     9   ar
    12     9    10   ar
    13    10    11   ar
    14     4     5   ar
    15     5    12    1
    16    12    13   am
    17    13    14    2
    18    13    16    1
    19    16    17   ar
    20    17    18   ar
    21    18    19   ar
    22    19    22    1
    23    22    23   ar
    24    23    24   ar
    25    24    25   ar
    26    25    26   ar
    27    19    20   ar
    28    20    21   ar
    29     5     6   ar
    30     6     1   ar
    31    11     7   ar
    32    21    16   ar
    33    26    22   ar
    34    12    15    1
@<TRIPOS>MOLECULE
*****
 31 34 0 0 0
SMALL
GASTEIGER

@<TRIPOS>ATOM
      1 C          62.9603   82.3896   12.4447 C.ar    1  UNL1        0.0180
      2 C          62.2328   81.9309   13.6736 C.ar    1  UNL1        0.0029
      3 C          62.0646   82.8625   14.8372 C.ar    1  UNL1        0.0189
      4 C          62.6241   84.2527   14.7719 C.ar    1  UNL1        0.0789
      5 C          63.3516   84.7113   13.5430 C.ar    1  UNL1        0.0669
      6 C          63.5198   83.7798   12.3794 C.ar    1  UNL1        0.0174
      7 N          62.4560   85.1843   15.9355 N.ar    1  UNL1       -0.2852
      8 C          63.5326   85.6031   16.8923 C.ar    1  UNL1        0.1023
      9 C          62.9237   86.5382   17.8947 C.ar    1  UNL1        0.1196
     10 N          61.4709   86.6974   17.5574 N.ar    1  UNL1       -0.2220
     11 C          61.1818   85.8606   16.3465 C.ar    1  UNL1        0.1829
     12 N          63.9111   86.1016   13.4776 N.am    1  UNL1       -0.2792
     13 C          63.1431   87.1873   12.7838 C.2     1  UNL1        0.2510
     14 O          61.8156   86.8828   12.1554 O.2     1  UNL1       -0.2698
     15 H          64.7825   86.3015   13.8901 H       1  UNL1        0.1552
     16 C          63.7026   88.5775   12.7184 C.ar    1  UNL1        0.0728
     17 C          63.4006   89.4528   11.5383 C.ar    1  UNL1        0.0076
     18 C          63.9601   90.8430   11.4730 C.ar    1  UNL1        0.0198
     19 C          64.8216   91.3579   12.5878 C.ar    1  UNL1        0.0873
     20 N          65.1236   90.4826   13.7678 N.ar    1  UNL1       -0.2432
     21 C          64.5641   89.0925   13.8332 C.ar    1  UNL1        0.1033
     22 C          65.3811   92.7482   12.5224 C.ar    1  UNL1        0.0471
     23 C          65.3599   93.6517   11.3252 C.ar    1  UNL1        0.0085
     24 C          66.0257   94.9409   11.7055 C.ar    1  UNL1        0.0075
     25 C          66.4583   94.8341   13.1379 C.ar    1  UNL1        0.0355
     26 S          66.0599   93.4790   13.6427 S.2     1  UNL1       -0.0849
     27 N          62.6143   80.0515   11.3661 N.2     1  UNL1       -0.0873
     28 C          63.1284   81.4580   11.2811 C.2     1  UNL1        0.0974
     29 C          63.8107   81.9330   10.0326 C.3     1  UNL1        0.0555
     30 C          62.8031   77.6367   10.4261 C.3     1  UNL1        0.2885
     31 O          62.7824   79.1199   10.2025 O.2     1  UNL1       -0.3734
@<TRIPOS>BOND
     1    30    31    1
     2    31    27    1
     3    27    28    2
     4    28    29    1
     5    28     1    1
     6     1     2   ar
     7     2     3   ar
     8     3     4   ar
     9     4     7    1
    10     7     8   ar
    11     8     9   ar
    12     9    10   ar
    13    10    11   ar
    14     4     5   ar
    15     5    12    1
    16    12    13   am
    17    13    14    2
    18    13    16    1
    19    16    17   ar
    20    17    18   ar
    21    18    19   ar
    22    19    22    1
    23    22    23   ar
    24    23    24   ar
    25    24    25   ar
    26    25    26   ar
    27    19    20   ar
    28    20    21   ar
    29     5     6   ar
    30     6     1   ar
    31    11     7   ar
    32    21    16   ar
    33    26    22   ar
    34    12    15    1
@<TRIPOS>MOLECULE
*****
 31 34 0 0 0
SMALL
GASTEIGER

@<TRIPOS>ATOM
      1 C          63.4345   93.7888   -3.9821 C.ar    1  UNL1        0.0180
      2 C          64.1117   93.5782   -2.6603 C.ar    1  UNL1        0.0029
      3 C          63.3730   93.8606   -1.3858 C.ar    1  UNL1        0.0189
      4 C          61.9571   94.3536   -1.4330 C.ar    1  UNL1        0.0789
      5 C          61.2800   94.5642   -2.7547 C.ar    1  UNL1        0.0669
      6 C          62.0187   94.2818   -4.0293 C.ar    1  UNL1        0.0174
      7 N          61.2184   94.6361   -0.1584 N.ar    1  UNL1       -0.2852
      8 C          61.3419   95.8764    0.6760 C.ar    1  UNL1        0.1023
      9 C          60.4263   95.7347    1.8557 C.ar    1  UNL1        0.1196
     10 N          59.7369   94.4067    1.7503 N.ar    1  UNL1       -0.2220
     11 C          60.2264   93.7277    0.5056 C.ar    1  UNL1        0.1829
     12 N          59.8641   95.0572   -2.8020 N.am    1  UNL1       -0.2792
     13 C          58.7351   94.0819   -2.9573 C.2     1  UNL1        0.2510
     14 O          59.0220   92.6136   -3.0654 O.2     1  UNL1       -0.2698
     15 H          59.6758   96.0209   -2.7310 H       1  UNL1        0.1552
     16 C          57.3192   94.5750   -3.0046 C.ar    1  UNL1        0.0728
     17 C          56.3394   94.1438   -1.9538 C.ar    1  UNL1        0.0076
     18 C          54.9236   94.6369   -2.0011 C.ar    1  UNL1        0.0198
     19 C          54.4875   95.5610   -3.0991 C.ar    1  UNL1        0.0873
     20 N          55.4672   95.9921   -4.1499 N.ar    1  UNL1       -0.2432
     21 C          56.8831   95.4991   -4.1026 C.ar    1  UNL1        0.1033
     22 C          53.0716   96.0540   -3.1464 C.ar    1  UNL1        0.0471
     23 C          52.1989   96.3440   -1.9613 C.ar    1  UNL1        0.0085
     24 C          50.8678   96.8128   -2.4694 C.ar    1  UNL1        0.0075
     25 C          50.9177   96.8126   -3.9686 C.ar    1  UNL1        0.0355
     26 S          52.2797   96.3437   -4.3870 S.2     1  UNL1       -0.0849
     27 N          63.9237   92.2281   -6.0007 N.2     1  UNL1       -0.0873
     28 C          64.1733   93.5063   -5.2567 C.2     1  UNL1        0.0974
     29 C          65.1616   94.5022   -5.7872 C.3     1  UNL1        0.0555
     30 C          65.6781   90.8429   -7.3249 C.3     1  UNL1        0.2885
     31 O          64.6624   91.9456   -7.2753 O.2     1  UNL1       -0.3734
@<TRIPOS>BOND
     1    30    31    1
     2    31    27    1
     3    27    28    2
     4    28    29    1
     5    28     1    1
     6     1     2   ar
     7     2     3   ar
     8     3     4   ar
     9     4     7    1
    10     7     8   ar
    11     8     9   ar
    12     9    10   ar
    13    10    11   ar
    14     4     5   ar
    15     5    12    1
    16    12    13   am
    17    13    14    2
    18    13    16    1
    19    16    17   ar
    20    17    18   ar
    21    18    19   ar
    22    19    22    1
    23    22    23   ar
    24    23    24   ar
    25    24    25   ar
    26    25    26   ar
    27    19    20   ar
    28    20    21   ar
    29     5     6   ar
    30     6     1   ar
    31    11     7   ar
    32    21    16   ar
    33    26    22   ar
    34    12    15    1
@<TRIPOS>MOLECULE
*****
 31 34 0 0 0
SMALL
GASTEIGER

@<TRIPOS>ATOM
      1 C          64.9259   91.4514   14.2310 C.ar    1  UNL1        0.0180
      2 C          64.5445   91.6879   15.6622 C.ar    1  UNL1        0.0029
      3 C          63.8570   90.6077   16.4435 C.ar    1  UNL1        0.0189
      4 C          63.5509   89.2910   15.7936 C.ar    1  UNL1        0.0789
      5 C          63.9323   89.0545   14.3623 C.ar    1  UNL1        0.0669
      6 C          64.6198   90.1347   13.5810 C.ar    1  UNL1        0.0174
      7 N          62.8634   88.2107   16.5749 N.ar    1  UNL1       -0.2852
      8 C          63.3889   87.5480   17.8137 C.ar    1  UNL1        0.1023
      9 C          62.3800   86.5312   18.2590 C.ar    1  UNL1        0.1196
     10 N          61.2309   86.5656   17.2954 N.ar    1  UNL1       -0.2220
     11 C          61.5297   87.6036   16.2546 C.ar    1  UNL1        0.1829
     12 N          63.6262   87.7377   13.7123 N.am    1  UNL1       -0.2792
     13 C          64.3498   86.4989   14.1503 C.2     1  UNL1        0.2510
     14 O          65.3795   86.5768   15.2382 O.2     1  UNL1       -0.2698
     15 H          62.9504   87.6865   12.9982 H       1  UNL1        0.1552
     16 C          64.0437   85.1821   13.5002 C.ar    1  UNL1        0.0728
     17 C          63.1226   85.1256   12.3178 C.ar    1  UNL1        0.0076
     18 C          62.8166   83.8089   11.6678 C.ar    1  UNL1        0.0198
     19 C          63.4317   82.5487   12.2003 C.ar    1  UNL1        0.0873
     20 N          64.3528   82.6052   13.3828 N.ar    1  UNL1       -0.2432
     21 C          64.6588   83.9219   14.0327 C.ar    1  UNL1        0.1033
     22 C          63.1256   81.2319   11.5503 C.ar    1  UNL1        0.0471
     23 C          63.1728   80.9427   10.0791 C.ar    1  UNL1        0.0085
     24 C          62.7950   79.5053    9.8769 C.ar    1  UNL1        0.0075
     25 C          62.5142   78.9060   11.2230 C.ar    1  UNL1        0.0355
     26 S          62.7186   79.9731   12.2572 S.2     1  UNL1       -0.0849
     27 N          65.3099   92.7119   11.9918 N.2     1  UNL1       -0.0873
     28 C          65.6134   92.5317   13.4496 C.2     1  UNL1        0.0974
     29 C          66.6044   93.4317   14.1262 C.3     1  UNL1        0.0555
     30 C          66.9715   93.4310   10.1284 C.3     1  UNL1        0.2885
     31 O          65.9974   93.7921   11.2105 O.2     1  UNL1       -0.3734
@<TRIPOS>BOND
     1    30    31    1
     2    31    27    1
     3    27    28    2
     4    28    29    1
     5    28     1    1
     6     1     2   ar
     7     2     3   ar
     8     3     4   ar
     9     4     7    1
    10     7     8   ar
    11     8     9   ar
    12     9    10   ar
    13    10    11   ar
    14     4     5   ar
    15     5    12    1
    16    12    13   am
    17    13    14    2
    18    13    16    1
    19    16    17   ar
    20    17    18   ar
    21    18    19   ar
    22    19    22    1
    23    22    23   ar
    24    23    24   ar
    25    24    25   ar
    26    25    26   ar
    27    19    20   ar
    28    20    21   ar
    29     5     6   ar
    30     6     1   ar
    31    11     7   ar
    32    21    16   ar
    33    26    22   ar
    34    12    15    1
