@<TRIPOS>MOLECULE
*****
 33 37 0 0 0
SMALL
GASTEIGER

@<TRIPOS>ATOM
      1 C          62.0744   89.4293   11.0374 C.ar    1  UNL1        0.0990
      2 C          60.8093   90.1173   10.6177 C.ar    1  UNL1        0.0207
      3 C          59.8789   89.4502    9.6486 C.ar    1  UNL1        0.0032
      4 C          60.2135   88.0952    9.0991 C.ar    1  UNL1        0.0207
      5 C          59.2830   87.4282    8.1298 C.ar    1  UNL1        0.0017
      6 C          59.6176   86.0732    7.5803 C.ar    1  UNL1        0.0032
      7 C          60.8828   85.3852    8.0000 C.ar    1  UNL1        0.0385
      8 C          61.8133   86.0522    8.9692 C.ar    1  UNL1        0.1559
      9 C          61.4786   87.4072    9.5187 C.ar    1  UNL1        0.1151
     10 N          62.4091   88.0743   10.4879 N.ar    1  UNL1       -0.2408
     11 C          65.8946   93.5037   11.7022 C.ar    1  UNL1        0.1432
     12 C          65.1477   93.1606   10.4474 C.ar    1  UNL1        0.0560
     13 C          64.1572   92.0342   10.4485 C.ar    1  UNL1        0.0846
     14 N          63.9135   91.2509   11.7042 N.ar    1  UNL1       -0.2872
     15 C          63.0049   90.0963   12.0066 C.ar    1  UNL1        0.1021
     16 C          63.1903   89.7258   13.4482 C.ar    1  UNL1        0.1195
     17 N          64.2133   90.6514   14.0369 N.ar    1  UNL1       -0.2247
     18 C          64.6603   91.5940   12.9590 C.ar    1  UNL1        0.1509
     19 C          65.6508   92.7204   12.9580 C.ar    1  UNL1        0.0743
     20 O          66.8851   94.6301   11.7012 O.3     1  UNL1       -0.4726
     21 C          67.0431   95.4889   10.4815 C.3     1  UNL1        0.2373
     22 C          67.8578   95.0004    9.3206 C.3     1  UNL1        0.1894
     23 C          68.4881   92.4852    9.1589 C.3     1  UNL1        0.1743
     24 O          68.8535   93.8955    9.5153 O.3     1  UNL1       -0.3471
     25 O          63.0783   85.3642    9.3889 O.3     1  UNL1       -0.4747
     26 C          63.1175   84.5810   10.6675 C.3     1  UNL1        0.2010
     27 C          62.4367   85.1127   11.8938 C.3     1  UNL1        0.0635
     28 C          62.4759   84.3295   13.1725 C.3     1  UNL1        0.0725
     29 N          63.1959   83.0146   13.2249 N.3     1  UNL1       -0.2950
     30 C          63.8767   82.4829   11.9986 C.3     1  UNL1        0.1081
     31 C          63.8375   83.2661   10.7199 C.3     1  UNL1        0.2161
     32 F          64.5183   82.7345    9.4936 F       1  UNL1       -0.2319
     33 H          62.5101   82.3146   13.5080 H       1  UNL1        0.1233
@<TRIPOS>BOND
     1    23    24    1
     2    24    22    1
     3    22    21    1
     4    21    20    1
     5    20    11    1
     6    11    12   ar
     7    12    13   ar
     8    13    14   ar
     9    14    15   ar
    10    15     1    1
    11     1     2   ar
    12     2     3   ar
    13     3     4   ar
    14     4     5   ar
    15     5     6   ar
    16     6     7   ar
    17     7     8   ar
    18     8    25    1
    19    26    25    1
    20    26    27    1
    21    27    28    1
    22    28    29    1
    23    29    30    1
    24    30    31    1
    25    31    32    1
    26     8     9   ar
    27     9    10   ar
    28    15    16   ar
    29    16    17   ar
    30    17    18   ar
    31    18    19   ar
    32    19    11   ar
    33    18    14   ar
    34    10     1   ar
    35     9     4   ar
    36    31    26    1
    37    29    33    1
@<TRIPOS>MOLECULE
*****
 33 37 0 0 0
SMALL
GASTEIGER

@<TRIPOS>ATOM
      1 C          63.8725   89.8763   13.3819 C.ar    1  UNL1        0.0990
      2 C          63.3596   89.9854   14.7872 C.ar    1  UNL1        0.0207
      3 C          64.0626   90.8679   15.7756 C.ar    1  UNL1        0.0032
      4 C          65.2784   91.6413   15.3587 C.ar    1  UNL1        0.0207
      5 C          65.9813   92.5238   16.3472 C.ar    1  UNL1        0.0017
      6 C          67.1971   93.2972   15.9303 C.ar    1  UNL1        0.0032
      7 C          67.7099   93.1880   14.5248 C.ar    1  UNL1        0.0385
      8 C          67.0069   92.3055   13.5364 C.ar    1  UNL1        0.1559
      9 C          65.7912   91.5321   13.9533 C.ar    1  UNL1        0.1151
     10 N          65.0882   90.6496   12.9649 N.ar    1  UNL1       -0.2408
     11 C          62.6677   84.5626   11.9853 C.ar    1  UNL1        0.1432
     12 C          63.4739   85.0277   13.1617 C.ar    1  UNL1        0.0560
     13 C          63.6983   86.4939   13.3846 C.ar    1  UNL1        0.0846
     14 N          63.1166   87.4951   12.4310 N.ar    1  UNL1       -0.2872
     15 C          63.1695   88.9938   12.3934 C.ar    1  UNL1        0.1021
     16 C          62.3961   89.4549   11.1937 C.ar    1  UNL1        0.1195
     17 N          61.8652   88.2413   10.4899 N.ar    1  UNL1       -0.2247
     18 C          62.3105   87.0300   11.2547 C.ar    1  UNL1        0.1509
     19 C          62.0860   85.5639   11.0318 C.ar    1  UNL1        0.0743
     20 O          62.4433   83.0964   11.7625 O.3     1  UNL1       -0.4726
     21 C          63.5587   82.1221   12.0011 C.3     1  UNL1        0.2373
     22 C          63.5513   81.2593   13.2282 C.3     1  UNL1        0.1894
     23 C          61.1391   80.9616   14.1461 C.3     1  UNL1        0.1743
     24 O          62.5325   81.4940   14.3038 O.3     1  UNL1       -0.3471
     25 O          67.5197   92.1964   12.1310 O.3     1  UNL1       -0.4747
     26 C          67.1174   93.2136   11.1047 C.3     1  UNL1        0.2010
     27 C          66.0983   94.2601   11.4454 C.3     1  UNL1        0.0635
     28 C          65.6959   95.2773   10.4190 C.3     1  UNL1        0.0725
     29 N          66.3126   95.2480    9.0520 N.3     1  UNL1       -0.2950
     30 C          67.3318   94.2014    8.7113 C.3     1  UNL1        0.1081
     31 C          67.7342   93.1842    9.7376 C.3     1  UNL1        0.2161
     32 F          68.7533   92.1376    9.3970 F       1  UNL1       -0.2319
     33 H          66.7618   96.1530    8.9122 H       1  UNL1        0.1233
@<TRIPOS>BOND
     1    23    24    1
     2    24    22    1
     3    22    21    1
     4    21    20    1
     5    20    11    1
     6    11    12   ar
     7    12    13   ar
     8    13    14   ar
     9    14    15   ar
    10    15     1    1
    11     1     2   ar
    12     2     3   ar
    13     3     4   ar
    14     4     5   ar
    15     5     6   ar
    16     6     7   ar
    17     7     8   ar
    18     8    25    1
    19    26    25    1
    20    26    27    1
    21    27    28    1
    22    28    29    1
    23    29    30    1
    24    30    31    1
    25    31    32    1
    26     8     9   ar
    27     9    10   ar
    28    15    16   ar
    29    16    17   ar
    30    17    18   ar
    31    18    19   ar
    32    19    11   ar
    33    18    14   ar
    34    10     1   ar
    35     9     4   ar
    36    31    26    1
    37    29    33    1
@<TRIPOS>MOLECULE
*****
 33 37 0 0 0
SMALL
GASTEIGER

@<TRIPOS>ATOM
      1 C          63.5477   89.0510   12.7111 C.ar    1  UNL1        0.0990
      2 C          63.8385   88.6782   14.1346 C.ar    1  UNL1        0.0207
      3 C          64.6395   89.6022   15.0032 C.ar    1  UNL1        0.0032
      4 C          65.1496   90.8991   14.4484 C.ar    1  UNL1        0.0207
      5 C          65.9506   91.8232   15.3171 C.ar    1  UNL1        0.0017
      6 C          66.4607   93.1201   14.7622 C.ar    1  UNL1        0.0032
      7 C          66.1698   93.4929   13.3386 C.ar    1  UNL1        0.0385
      8 C          65.3688   92.5689   12.4700 C.ar    1  UNL1        0.1559
      9 C          64.8587   91.2720   13.0249 C.ar    1  UNL1        0.1151
     10 N          64.0578   90.3479   12.1562 N.ar    1  UNL1       -0.2408
     11 C          59.9438   88.7388    8.4039 C.ar    1  UNL1        0.1432
     12 C          60.5413   89.9814    8.9946 C.ar    1  UNL1        0.0560
     13 C          61.4923   89.8802   10.1502 C.ar    1  UNL1        0.0846
     14 N          61.8458   88.5364   10.7151 N.ar    1  UNL1       -0.2872
     15 C          62.7467   88.1269   11.8424 C.ar    1  UNL1        0.1021
     16 C          62.7060   86.6313   11.9485 C.ar    1  UNL1        0.1195
     17 N          61.7800   86.1163   10.8867 N.ar    1  UNL1       -0.2247
     18 C          61.2483   87.2938   10.1245 C.ar    1  UNL1        0.1509
     19 C          60.2974   87.3949    8.9689 C.ar    1  UNL1        0.0743
     20 O          58.9929   88.8399    7.2484 O.3     1  UNL1       -0.4726
     21 C          59.2912   89.7713    6.1109 C.3     1  UNL1        0.2373
     22 C          58.3107   90.8457    5.7444 C.3     1  UNL1        0.1894
     23 C          59.5878   92.4525    4.1517 C.3     1  UNL1        0.1743
     24 O          58.4242   91.5456    4.4226 O.3     1  UNL1       -0.3471
     25 O          65.0780   92.9417   11.0465 O.3     1  UNL1       -0.4747
     26 C          65.9977   93.8714   10.3118 C.3     1  UNL1        0.2010
     27 C          65.6481   95.3242   10.1813 C.3     1  UNL1        0.0635
     28 C          66.5678   96.2539    9.4466 C.3     1  UNL1        0.0725
     29 N          67.8371   95.7308    8.8424 N.3     1  UNL1       -0.2950
     30 C          68.1868   94.2779    8.9729 C.3     1  UNL1        0.1081
     31 C          67.2671   93.3482    9.7076 C.3     1  UNL1        0.2161
     32 F          67.6167   91.8954    9.8381 F       1  UNL1       -0.2319
     33 H          68.6025   96.2569    9.2639 H       1  UNL1        0.1233
@<TRIPOS>BOND
     1    23    24    1
     2    24    22    1
     3    22    21    1
     4    21    20    1
     5    20    11    1
     6    11    12   ar
     7    12    13   ar
     8    13    14   ar
     9    14    15   ar
    10    15     1    1
    11     1     2   ar
    12     2     3   ar
    13     3     4   ar
    14     4     5   ar
    15     5     6   ar
    16     6     7   ar
    17     7     8   ar
    18     8    25    1
    19    26    25    1
    20    26    27    1
    21    27    28    1
    22    28    29    1
    23    29    30    1
    24    30    31    1
    25    31    32    1
    26     8     9   ar
    27     9    10   ar
    28    15    16   ar
    29    16    17   ar
    30    17    18   ar
    31    18    19   ar
    32    19    11   ar
    33    18    14   ar
    34    10     1   ar
    35     9     4   ar
    36    31    26    1
    37    29    33    1
@<TRIPOS>MOLECULE
*****
 33 37 0 0 0
SMALL
GASTEIGER

@<TRIPOS>ATOM
      1 C          63.6119   89.7000   13.9375 C.ar    1  UNL1        0.0990
      2 C          63.2787   90.4024   15.2202 C.ar    1  UNL1        0.0207
      3 C          63.0956   89.6125   16.4821 C.ar    1  UNL1        0.0032
      4 C          63.2458   88.1202   16.4613 C.ar    1  UNL1        0.0207
      5 C          63.0627   87.3302   17.7233 C.ar    1  UNL1        0.0017
      6 C          63.2129   85.8379   17.7024 C.ar    1  UNL1        0.0032
      7 C          63.5461   85.1355   16.4195 C.ar    1  UNL1        0.0385
      8 C          63.7292   85.9255   15.1576 C.ar    1  UNL1        0.1559
      9 C          63.5790   87.4178   15.1785 C.ar    1  UNL1        0.1151
     10 N          63.7621   88.2077   13.9166 N.ar    1  UNL1       -0.2408
     11 C          66.2159   94.0964   11.5862 C.ar    1  UNL1        0.1432
     12 C          66.3355   93.6284   13.0063 C.ar    1  UNL1        0.0560
     13 C          65.5633   92.4280   13.4679 C.ar    1  UNL1        0.0846
     14 N          64.6717   91.6958   12.5094 N.ar    1  UNL1       -0.2872
     15 C          63.7950   90.4900   12.6755 C.ar    1  UNL1        0.1021
     16 C          63.1336   90.2128   11.3580 C.ar    1  UNL1        0.1195
     17 N          63.6015   91.2473   10.3777 N.ar    1  UNL1       -0.2247
     18 C          64.5521   92.1638   11.0894 C.ar    1  UNL1        0.1509
     19 C          65.3242   93.3641   10.6278 C.ar    1  UNL1        0.0743
     20 O          66.9880   95.2967   11.1246 O.3     1  UNL1       -0.4726
     21 C          67.1135   95.5895    9.6588 C.3     1  UNL1        0.2373
     22 C          68.0572   94.7880    8.8120 C.3     1  UNL1        0.1894
     23 C          68.5681   92.2835    9.2766 C.3     1  UNL1        0.1743
     24 O          68.9177   93.7327    9.4412 O.3     1  UNL1       -0.3471
     25 O          64.0625   85.2231   13.8749 O.3     1  UNL1       -0.4747
     26 C          63.4756   83.8736   13.5843 C.3     1  UNL1        0.2010
     27 C          62.4442   83.2905   14.5041 C.3     1  UNL1        0.0635
     28 C          61.8573   81.9410   14.2135 C.3     1  UNL1        0.0725
     29 N          62.3018   81.1746   13.0031 N.3     1  UNL1       -0.2950
     30 C          63.3332   81.7578   12.0832 C.3     1  UNL1        0.1081
     31 C          63.9202   83.1072   12.3738 C.3     1  UNL1        0.2161
     32 F          64.9516   83.6904   11.4540 F       1  UNL1       -0.2319
     33 H          61.4684   81.0037   12.4404 H       1  UNL1        0.1233
@<TRIPOS>BOND
     1    23    24    1
     2    24    22    1
     3    22    21    1
     4    21    20    1
     5    20    11    1
     6    11    12   ar
     7    12    13   ar
     8    13    14   ar
     9    14    15   ar
    10    15     1    1
    11     1     2   ar
    12     2     3   ar
    13     3     4   ar
    14     4     5   ar
    15     5     6   ar
    16     6     7   ar
    17     7     8   ar
    18     8    25    1
    19    26    25    1
    20    26    27    1
    21    27    28    1
    22    28    29    1
    23    29    30    1
    24    30    31    1
    25    31    32    1
    26     8     9   ar
    27     9    10   ar
    28    15    16   ar
    29    16    17   ar
    30    17    18   ar
    31    18    19   ar
    32    19    11   ar
    33    18    14   ar
    34    10     1   ar
    35     9     4   ar
    36    31    26    1
    37    29    33    1
@<TRIPOS>MOLECULE
*****
 33 37 0 0 0
SMALL
GASTEIGER

@<TRIPOS>ATOM
      1 C          63.7760   89.6038   12.8653 C.ar    1  UNL1        0.0990
      2 C          64.1188   89.2930   14.2921 C.ar    1  UNL1        0.0207
      3 C          64.9473   90.2550   15.0909 C.ar    1  UNL1        0.0032
      4 C          65.4330   91.5277   14.4629 C.ar    1  UNL1        0.0207
      5 C          66.2615   92.4897   15.2618 C.ar    1  UNL1        0.0017
      6 C          66.7472   93.7623   14.6338 C.ar    1  UNL1        0.0032
      7 C          66.4044   94.0730   13.2069 C.ar    1  UNL1        0.0385
      8 C          65.5758   93.1111   12.4080 C.ar    1  UNL1        0.1559
      9 C          65.0902   91.8384   13.0361 C.ar    1  UNL1        0.1151
     10 N          64.2616   90.8764   12.2372 N.ar    1  UNL1       -0.2408
     11 C          62.5905   84.1790   11.9689 C.ar    1  UNL1        0.1432
     12 C          63.5744   84.7388   12.9531 C.ar    1  UNL1        0.0560
     13 C          63.7658   86.2226   13.0608 C.ar    1  UNL1        0.0846
     14 N          62.9734   87.1466   12.1843 N.ar    1  UNL1       -0.2872
     15 C          62.9474   88.6418   12.0664 C.ar    1  UNL1        0.1021
     16 C          61.9475   89.0060   11.0093 C.ar    1  UNL1        0.1195
     17 N          61.3554   87.7360   10.4739 N.ar    1  UNL1       -0.2247
     18 C          61.9895   86.5868   11.2002 C.ar    1  UNL1        0.1509
     19 C          61.7981   85.1031   11.0924 C.ar    1  UNL1        0.0743
     20 O          62.3991   82.6952   11.8612 O.3     1  UNL1       -0.4726
     21 C          63.4993   81.7647   12.2784 C.3     1  UNL1        0.2373
     22 C          63.2455   80.7280   13.3323 C.3     1  UNL1        0.1894
     23 C          60.7935   80.8520   14.1820 C.3     1  UNL1        0.1743
     24 O          62.2645   81.0024   14.4334 O.3     1  UNL1       -0.3471
     25 O          65.2330   93.4218   10.9812 O.3     1  UNL1       -0.4747
     26 C          66.1561   94.2678   10.1552 C.3     1  UNL1        0.2010
     27 C          67.2839   93.6296    9.3999 C.3     1  UNL1        0.0635
     28 C          68.2070   94.4756    8.5739 C.3     1  UNL1        0.0725
     29 N          68.0021   95.9598    8.5032 N.3     1  UNL1       -0.2950
     30 C          66.8742   96.5981    9.2585 C.3     1  UNL1        0.1081
     31 C          65.9511   95.7521   10.0845 C.3     1  UNL1        0.2161
     32 F          64.8233   96.3903   10.8398 F       1  UNL1       -0.2319
     33 H          67.8661   96.1917    7.5193 H       1  UNL1        0.1233
@<TRIPOS>BOND
     1    23    24    1
     2    24    22    1
     3    22    21    1
     4    21    20    1
     5    20    11    1
     6    11    12   ar
     7    12    13   ar
     8    13    14   ar
     9    14    15   ar
    10    15     1    1
    11     1     2   ar
    12     2     3   ar
    13     3     4   ar
    14     4     5   ar
    15     5     6   ar
    16     6     7   ar
    17     7     8   ar
    18     8    25    1
    19    26    25    1
    20    26    27    1
    21    27    28    1
    22    28    29    1
    23    29    30    1
    24    30    31    1
    25    31    32    1
    26     8     9   ar
    27     9    10   ar
    28    15    16   ar
    29    16    17   ar
    30    17    18   ar
    31    18    19   ar
    32    19    11   ar
    33    18    14   ar
    34    10     1   ar
    35     9     4   ar
    36    31    26    1
    37    29    33    1
@<TRIPOS>MOLECULE
*****
 33 37 0 0 0
SMALL
GASTEIGER

@<TRIPOS>ATOM
      1 C          64.1993   89.7445   14.7514 C.ar    1  UNL1        0.0990
      2 C          65.0533   90.8132   15.3664 C.ar    1  UNL1        0.0207
      3 C          65.5455   91.9552   14.5276 C.ar    1  UNL1        0.0032
      4 C          65.1836   92.0284   13.0737 C.ar    1  UNL1        0.0207
      5 C          65.6759   93.1704   12.2349 C.ar    1  UNL1        0.0017
      6 C          65.3139   93.2436   10.7810 C.ar    1  UNL1        0.0032
      7 C          64.4598   92.1748   10.1660 C.ar    1  UNL1        0.0385
      8 C          63.9676   91.0328   11.0049 C.ar    1  UNL1        0.1559
      9 C          64.3295   90.9596   12.4587 C.ar    1  UNL1        0.1151
     10 N          63.8373   89.8177   13.2975 N.ar    1  UNL1       -0.2408
     11 C          63.6341   84.1567   15.0581 C.ar    1  UNL1        0.1432
     12 C          64.2386   84.9439   13.9334 C.ar    1  UNL1        0.0560
     13 C          64.3090   86.4398   14.0181 C.ar    1  UNL1        0.0846
     14 N          63.7748   87.1486   15.2273 N.ar    1  UNL1       -0.2872
     15 C          63.7070   88.6025   15.5902 C.ar    1  UNL1        0.1021
     16 C          63.0606   88.7138   16.9392 C.ar    1  UNL1        0.1195
     17 N          62.7289   87.3288   17.4100 N.ar    1  UNL1       -0.2247
     18 C          63.1703   86.3614   16.3520 C.ar    1  UNL1        0.1509
     19 C          63.0999   84.8655   16.2674 C.ar    1  UNL1        0.0743
     20 O          63.5637   82.6608   14.9735 O.3     1  UNL1       -0.4726
     21 C          62.4636   82.0047   14.1928 C.3     1  UNL1        0.2373
     22 C          62.7190   81.5260   12.7943 C.3     1  UNL1        0.1894
     23 C          64.0942   82.6547   10.9011 C.3     1  UNL1        0.1743
     24 O          62.8136   82.5134   11.6691 O.3     1  UNL1       -0.3471
     25 O          63.1135   89.9641   10.3899 O.3     1  UNL1       -0.4747
     26 C          61.7105   89.7527   10.8765 C.3     1  UNL1        0.2010
     27 C          60.7916   90.9257   11.0486 C.3     1  UNL1        0.0635
     28 C          59.3886   90.7142   11.5352 C.3     1  UNL1        0.0725
     29 N          58.9044   89.3298   11.8497 N.3     1  UNL1       -0.2950
     30 C          59.8234   88.1567   11.6776 C.3     1  UNL1        0.1081
     31 C          61.2264   88.3682   11.1910 C.3     1  UNL1        0.2161
     32 F          62.1453   87.1952   11.0189 F       1  UNL1       -0.2319
     33 H          58.0941   89.1589   11.2543 H       1  UNL1        0.1233
@<TRIPOS>BOND
     1    23    24    1
     2    24    22    1
     3    22    21    1
     4    21    20    1
     5    20    11    1
     6    11    12   ar
     7    12    13   ar
     8    13    14   ar
     9    14    15   ar
    10    15     1    1
    11     1     2   ar
    12     2     3   ar
    13     3     4   ar
    14     4     5   ar
    15     5     6   ar
    16     6     7   ar
    17     7     8   ar
    18     8    25    1
    19    26    25    1
    20    26    27    1
    21    27    28    1
    22    28    29    1
    23    29    30    1
    24    30    31    1
    25    31    32    1
    26     8     9   ar
    27     9    10   ar
    28    15    16   ar
    29    16    17   ar
    30    17    18   ar
    31    18    19   ar
    32    19    11   ar
    33    18    14   ar
    34    10     1   ar
    35     9     4   ar
    36    31    26    1
    37    29    33    1
@<TRIPOS>MOLECULE
*****
 33 37 0 0 0
SMALL
GASTEIGER

@<TRIPOS>ATOM
      1 C          62.5976   85.7034   10.9092 C.ar    1  UNL1        0.0990
      2 C          63.0751   85.1619    9.5945 C.ar    1  UNL1        0.0207
      3 C          63.3159   83.6903    9.4324 C.ar    1  UNL1        0.0032
      4 C          63.0790   82.7602   10.5852 C.ar    1  UNL1        0.0207
      5 C          63.3198   81.2885   10.4231 C.ar    1  UNL1        0.0017
      6 C          63.0830   80.3584   11.5759 C.ar    1  UNL1        0.0032
      7 C          62.6054   80.9000   12.8907 C.ar    1  UNL1        0.0385
      8 C          62.3646   82.3716   13.0527 C.ar    1  UNL1        0.1559
      9 C          62.6015   83.3017   11.8999 C.ar    1  UNL1        0.1151
     10 N          62.3607   84.7733   12.0620 N.ar    1  UNL1       -0.2408
     11 C          63.7004   90.2379   14.0492 C.ar    1  UNL1        0.1432
     12 C          64.1945   88.8398   14.2751 C.ar    1  UNL1        0.0560
     13 C          63.7991   87.7429   13.3315 C.ar    1  UNL1        0.0846
     14 N          62.9096   88.0441   12.1618 N.ar    1  UNL1       -0.2872
     15 C          62.3568   87.1751   11.0713 C.ar    1  UNL1        0.1021
     16 C          61.5210   88.0362   10.1713 C.ar    1  UNL1        0.1195
     17 N          61.5573   89.4373   10.7056 N.ar    1  UNL1       -0.2247
     18 C          62.4155   89.4422   11.9359 C.ar    1  UNL1        0.1509
     19 C          62.8108   90.5391   12.8795 C.ar    1  UNL1        0.0743
     20 O          64.0957   91.3348   14.9927 O.3     1  UNL1       -0.4726
     21 C          65.5211   91.7990   15.0483 C.3     1  UNL1        0.2373
     22 C          66.2130   92.2479   13.7954 C.3     1  UNL1        0.1894
     23 C          66.2021   94.1036   11.9772 C.3     1  UNL1        0.1743
     24 O          65.4723   93.0703   12.7830 O.3     1  UNL1       -0.3471
     25 O          61.8871   82.9131   14.3674 O.3     1  UNL1       -0.4747
     26 C          62.6961   83.9489   15.0903 C.3     1  UNL1        0.2010
     27 C          62.0282   84.8836   16.0548 C.3     1  UNL1        0.0635
     28 C          62.8372   85.9194   16.7777 C.3     1  UNL1        0.0725
     29 N          64.3141   86.0206   16.5361 N.3     1  UNL1       -0.2950
     30 C          64.9821   85.0859   15.5716 C.3     1  UNL1        0.1081
     31 C          64.1731   84.0501   14.8487 C.3     1  UNL1        0.2161
     32 F          64.8410   83.1154   13.8843 F       1  UNL1       -0.2319
     33 H          64.7699   85.8874   17.4388 H       1  UNL1        0.1233
@<TRIPOS>BOND
     1    23    24    1
     2    24    22    1
     3    22    21    1
     4    21    20    1
     5    20    11    1
     6    11    12   ar
     7    12    13   ar
     8    13    14   ar
     9    14    15   ar
    10    15     1    1
    11     1     2   ar
    12     2     3   ar
    13     3     4   ar
    14     4     5   ar
    15     5     6   ar
    16     6     7   ar
    17     7     8   ar
    18     8    25    1
    19    26    25    1
    20    26    27    1
    21    27    28    1
    22    28    29    1
    23    29    30    1
    24    30    31    1
    25    31    32    1
    26     8     9   ar
    27     9    10   ar
    28    15    16   ar
    29    16    17   ar
    30    17    18   ar
    31    18    19   ar
    32    19    11   ar
    33    18    14   ar
    34    10     1   ar
    35     9     4   ar
    36    31    26    1
    37    29    33    1
@<TRIPOS>MOLECULE
*****
 33 37 0 0 0
SMALL
GASTEIGER

@<TRIPOS>ATOM
      1 C          63.9817   89.1258   14.5744 C.ar    1  UNL1        0.0990
      2 C          65.2446   89.8981   14.8163 C.ar    1  UNL1        0.0207
      3 C          65.6690   90.9635   13.8495 C.ar    1  UNL1        0.0032
      4 C          64.8305   91.2566   12.6408 C.ar    1  UNL1        0.0207
      5 C          65.2549   92.3220   11.6739 C.ar    1  UNL1        0.0017
      6 C          64.4164   92.6151   10.4652 C.ar    1  UNL1        0.0032
      7 C          63.1534   91.8428   10.2234 C.ar    1  UNL1        0.0385
      8 C          62.7290   90.7774   11.1902 C.ar    1  UNL1        0.1559
      9 C          63.5675   90.4843   12.3989 C.ar    1  UNL1        0.1151
     10 N          63.1431   89.4189   13.3657 N.ar    1  UNL1       -0.2408
     11 C          63.0110   83.6258   15.2414 C.ar    1  UNL1        0.1432
     12 C          63.4627   84.3189   13.9903 C.ar    1  UNL1        0.0560
     13 C          63.6740   85.8040   13.9901 C.ar    1  UNL1        0.0846
     14 N          63.4336   86.5959   15.2411 N.ar    1  UNL1       -0.2872
     15 C          63.5572   88.0604   15.5413 C.ar    1  UNL1        0.1021
     16 C          63.1818   88.2723   16.9780 C.ar    1  UNL1        0.1195
     17 N          62.8262   86.9389   17.5658 N.ar    1  UNL1       -0.2247
     18 C          62.9818   85.9028   16.4923 C.ar    1  UNL1        0.1509
     19 C          62.7705   84.4178   16.4925 C.ar    1  UNL1        0.0743
     20 O          62.7997   82.1408   15.2416 O.3     1  UNL1       -0.4726
     21 C          61.8642   81.5162   14.2491 C.3     1  UNL1        0.2373
     22 C          62.2684   80.2697   13.5191 C.3     1  UNL1        0.1894
     23 C          63.1241   81.6684   11.5039 C.3     1  UNL1        0.1743
     24 O          62.7154   80.3494   12.0895 O.3     1  UNL1       -0.3471
     25 O          61.4661   90.0051   10.9483 O.3     1  UNL1       -0.4747
     26 C          61.5236   88.6642   10.2785 C.3     1  UNL1        0.2010
     27 C          62.3560   87.5655   10.8700 C.3     1  UNL1        0.0635
     28 C          62.4134   86.2245   10.2002 C.3     1  UNL1        0.0725
     29 N          61.6385   85.9823    8.9389 N.3     1  UNL1       -0.2950
     30 C          60.8060   87.0811    8.3474 C.3     1  UNL1        0.1081
     31 C          60.7486   88.4220    9.0172 C.3     1  UNL1        0.2161
     32 F          59.9162   89.5207    8.4258 F       1  UNL1       -0.2319
     33 H          61.0076   85.2031    9.1261 H       1  UNL1        0.1233
@<TRIPOS>BOND
     1    23    24    1
     2    24    22    1
     3    22    21    1
     4    21    20    1
     5    20    11    1
     6    11    12   ar
     7    12    13   ar
     8    13    14   ar
     9    14    15   ar
    10    15     1    1
    11     1     2   ar
    12     2     3   ar
    13     3     4   ar
    14     4     5   ar
    15     5     6   ar
    16     6     7   ar
    17     7     8   ar
    18     8    25    1
    19    26    25    1
    20    26    27    1
    21    27    28    1
    22    28    29    1
    23    29    30    1
    24    30    31    1
    25    31    32    1
    26     8     9   ar
    27     9    10   ar
    28    15    16   ar
    29    16    17   ar
    30    17    18   ar
    31    18    19   ar
    32    19    11   ar
    33    18    14   ar
    34    10     1   ar
    35     9     4   ar
    36    31    26    1
    37    29    33    1
@<TRIPOS>MOLECULE
*****
 33 37 0 0 0
SMALL
GASTEIGER

@<TRIPOS>ATOM
      1 C          64.2389   89.6608   13.9569 C.ar    1  UNL1        0.0990
      2 C          63.6611   90.0804   15.2760 C.ar    1  UNL1        0.0207
      3 C          64.3226   91.1649   16.0736 C.ar    1  UNL1        0.0032
      4 C          65.5619   91.8299   15.5521 C.ar    1  UNL1        0.0207
      5 C          66.2234   92.9145   16.3497 C.ar    1  UNL1        0.0017
      6 C          67.4627   93.5794   15.8282 C.ar    1  UNL1        0.0032
      7 C          68.0405   93.1598   14.5090 C.ar    1  UNL1        0.0385
      8 C          67.3790   92.0753   13.7115 C.ar    1  UNL1        0.1559
      9 C          66.1397   91.4103   14.2330 C.ar    1  UNL1        0.1151
     10 N          65.4782   90.3258   13.4354 N.ar    1  UNL1       -0.2408
     11 C          63.2879   84.1289   13.5961 C.ar    1  UNL1        0.1432
     12 C          64.0727   84.8441   14.6555 C.ar    1  UNL1        0.0560
     13 C          64.2270   86.3350   14.5966 C.ar    1  UNL1        0.0846
     14 N          63.5964   87.1106   13.4783 N.ar    1  UNL1       -0.2872
     15 C          63.5775   88.5762   13.1593 C.ar    1  UNL1        0.1021
     16 C          62.7809   88.7668   11.9027 C.ar    1  UNL1        0.1195
     17 N          62.3076   87.4190   11.4450 N.ar    1  UNL1       -0.2247
     18 C          62.8116   86.3954   12.4188 C.ar    1  UNL1        0.1509
     19 C          62.6573   84.9046   12.4777 C.ar    1  UNL1        0.0743
     20 O          63.1336   82.6381   13.6549 O.3     1  UNL1       -0.4726
     21 C          62.3373   81.9243   12.6030 C.3     1  UNL1        0.2373
     22 C          63.0396   81.1517   11.5260 C.3     1  UNL1        0.1894
     23 C          64.5386   82.8855   10.3026 C.3     1  UNL1        0.1743
     24 O          63.4628   81.8411   10.2628 O.3     1  UNL1       -0.3471
     25 O          67.9568   91.6557   12.3924 O.3     1  UNL1       -0.4747
     26 C          67.7094   92.4852   11.1673 C.3     1  UNL1        0.2010
     27 C          68.5663   92.2996    9.9503 C.3     1  UNL1        0.0635
     28 C          68.3189   93.1291    8.7252 C.3     1  UNL1        0.0725
     29 N          67.2146   94.1442    8.7172 N.3     1  UNL1       -0.2950
     30 C          66.3577   94.3298    9.9343 C.3     1  UNL1        0.1081
     31 C          66.6051   93.5004   11.1593 C.3     1  UNL1        0.2161
     32 F          65.7482   93.6860   12.3764 F       1  UNL1       -0.2319
     33 H          66.5888   93.8925    7.9521 H       1  UNL1        0.1233
@<TRIPOS>BOND
     1    23    24    1
     2    24    22    1
     3    22    21    1
     4    21    20    1
     5    20    11    1
     6    11    12   ar
     7    12    13   ar
     8    13    14   ar
     9    14    15   ar
    10    15     1    1
    11     1     2   ar
    12     2     3   ar
    13     3     4   ar
    14     4     5   ar
    15     5     6   ar
    16     6     7   ar
    17     7     8   ar
    18     8    25    1
    19    26    25    1
    20    26    27    1
    21    27    28    1
    22    28    29    1
    23    29    30    1
    24    30    31    1
    25    31    32    1
    26     8     9   ar
    27     9    10   ar
    28    15    16   ar
    29    16    17   ar
    30    17    18   ar
    31    18    19   ar
    32    19    11   ar
    33    18    14   ar
    34    10     1   ar
    35     9     4   ar
    36    31    26    1
    37    29    33    1
